
Version,
  9.1;                                    !- Version Identifier

Timestep,
  6;                                      !- Number of Timesteps per Hour

LifeCycleCost:Parameters,
  Life Cycle Cost Parameters,             !- Name
  EndOfYear,                              !- Discounting Convention
  ConstantDollar,                         !- Inflation Approach
  0.03,                                   !- Real Discount Rate
  ,                                       !- Nominal Discount Rate
  ,                                       !- Inflation
  ,                                       !- Base Date Month
  2011,                                   !- Base Date Year
  ,                                       !- Service Date Month
  2011,                                   !- Service Date Year
  25,                                     !- Length of Study Period in Years
  ,                                       !- Tax rate
  None;                                   !- Depreciation Method

LifeCycleCost:UsePriceEscalation,
  U.S. Avg  Commercial-Electricity,       !- LCC Price Escalation Name
  Electricity,                            !- Resource
  2011,                                   !- Escalation Start Year
  January,                                !- Escalation Start Month
  0.9838,                                 !- Year Escalation 1
  0.9730,                                 !- Year Escalation 2
  0.9632,                                 !- Year Escalation 3
  0.9611,                                 !- Year Escalation 4
  0.9571,                                 !- Year Escalation 5
  0.9553,                                 !- Year Escalation 6
  0.9539,                                 !- Year Escalation 7
  0.9521,                                 !- Year Escalation 8
  0.9546,                                 !- Year Escalation 9
  0.9550,                                 !- Year Escalation 10
  0.9553,                                 !- Year Escalation 11
  0.9564,                                 !- Year Escalation 12
  0.9575,                                 !- Year Escalation 13
  0.9596,                                 !- Year Escalation 14
  0.9618,                                 !- Year Escalation 15
  0.9614,                                 !- Year Escalation 16
  0.9618,                                 !- Year Escalation 17
  0.9618,                                 !- Year Escalation 18
  0.9593,                                 !- Year Escalation 19
  0.9589,                                 !- Year Escalation 20
  0.9607,                                 !- Year Escalation 21
  0.9625,                                 !- Year Escalation 22
  0.9650,                                 !- Year Escalation 23
  0.9708,                                 !- Year Escalation 24
  0.9751,                                 !- Year Escalation 25
  0.9762,                                 !- Year Escalation 26
  0.9766,                                 !- Year Escalation 27
  0.9766,                                 !- Year Escalation 28
  0.9769,                                 !- Year Escalation 29
  0.9773;                                 !- Year Escalation 30

LifeCycleCost:UsePriceEscalation,
  U.S. Avg  Commercial-Distillate Oil,    !- LCC Price Escalation Name
  FuelOil#1,                              !- Resource
  2011,                                   !- Escalation Start Year
  January,                                !- Escalation Start Month
  0.9714,                                 !- Year Escalation 1
  0.9730,                                 !- Year Escalation 2
  0.9942,                                 !- Year Escalation 3
  1.0164,                                 !- Year Escalation 4
  1.0541,                                 !- Year Escalation 5
  1.0928,                                 !- Year Escalation 6
  1.1267,                                 !- Year Escalation 7
  1.1580,                                 !- Year Escalation 8
  1.1792,                                 !- Year Escalation 9
  1.1967,                                 !- Year Escalation 10
  1.2200,                                 !- Year Escalation 11
  1.2333,                                 !- Year Escalation 12
  1.2566,                                 !- Year Escalation 13
  1.2709,                                 !- Year Escalation 14
  1.2826,                                 !- Year Escalation 15
  1.2985,                                 !- Year Escalation 16
  1.3102,                                 !- Year Escalation 17
  1.3250,                                 !- Year Escalation 18
  1.3261,                                 !- Year Escalation 19
  1.3282,                                 !- Year Escalation 20
  1.3324,                                 !- Year Escalation 21
  1.3356,                                 !- Year Escalation 22
  1.3431,                                 !- Year Escalation 23
  1.3510,                                 !- Year Escalation 24
  1.3568,                                 !- Year Escalation 25
  1.3606,                                 !- Year Escalation 26
  1.3637,                                 !- Year Escalation 27
  1.3674,                                 !- Year Escalation 28
  1.3706,                                 !- Year Escalation 29
  1.3743;                                 !- Year Escalation 30

LifeCycleCost:UsePriceEscalation,
  U.S. Avg  Commercial-Residual Oil,      !- LCC Price Escalation Name
  FuelOil#2,                              !- Resource
  2011,                                   !- Escalation Start Year
  January,                                !- Escalation Start Month
  0.8469,                                 !- Year Escalation 1
  0.8257,                                 !- Year Escalation 2
  0.8681,                                 !- Year Escalation 3
  0.8988,                                 !- Year Escalation 4
  0.9289,                                 !- Year Escalation 5
  0.9604,                                 !- Year Escalation 6
  0.9897,                                 !- Year Escalation 7
  1.0075,                                 !- Year Escalation 8
  1.0314,                                 !- Year Escalation 9
  1.0554,                                 !- Year Escalation 10
  1.0861,                                 !- Year Escalation 11
  1.1278,                                 !- Year Escalation 12
  1.1497,                                 !- Year Escalation 13
  1.1620,                                 !- Year Escalation 14
  1.1743,                                 !- Year Escalation 15
  1.1852,                                 !- Year Escalation 16
  1.1948,                                 !- Year Escalation 17
  1.2037,                                 !- Year Escalation 18
  1.2071,                                 !- Year Escalation 19
  1.2119,                                 !- Year Escalation 20
  1.2139,                                 !- Year Escalation 21
  1.2194,                                 !- Year Escalation 22
  1.2276,                                 !- Year Escalation 23
  1.2365,                                 !- Year Escalation 24
  1.2420,                                 !- Year Escalation 25
  1.2461,                                 !- Year Escalation 26
  1.2509,                                 !- Year Escalation 27
  1.2550,                                 !- Year Escalation 28
  1.2591,                                 !- Year Escalation 29
  1.2638;                                 !- Year Escalation 30

LifeCycleCost:UsePriceEscalation,
  U.S. Avg  Commercial-Natural gas,       !- LCC Price Escalation Name
  NaturalGas,                             !- Resource
  2011,                                   !- Escalation Start Year
  January,                                !- Escalation Start Month
  0.9823,                                 !- Year Escalation 1
  0.9557,                                 !- Year Escalation 2
  0.9279,                                 !- Year Escalation 3
  0.9257,                                 !- Year Escalation 4
  0.9346,                                 !- Year Escalation 5
  0.9412,                                 !- Year Escalation 6
  0.9512,                                 !- Year Escalation 7
  0.9645,                                 !- Year Escalation 8
  0.9856,                                 !- Year Escalation 9
  1.0067,                                 !- Year Escalation 10
  1.0222,                                 !- Year Escalation 11
  1.0410,                                 !- Year Escalation 12
  1.0610,                                 !- Year Escalation 13
  1.0787,                                 !- Year Escalation 14
  1.0942,                                 !- Year Escalation 15
  1.1098,                                 !- Year Escalation 16
  1.1220,                                 !- Year Escalation 17
  1.1308,                                 !- Year Escalation 18
  1.1386,                                 !- Year Escalation 19
  1.1486,                                 !- Year Escalation 20
  1.1619,                                 !- Year Escalation 21
  1.1763,                                 !- Year Escalation 22
  1.1918,                                 !- Year Escalation 23
  1.2118,                                 !- Year Escalation 24
  1.2284,                                 !- Year Escalation 25
  1.2439,                                 !- Year Escalation 26
  1.2605,                                 !- Year Escalation 27
  1.2772,                                 !- Year Escalation 28
  1.2938,                                 !- Year Escalation 29
  1.3115;                                 !- Year Escalation 30

LifeCycleCost:UsePriceEscalation,
  U.S. Avg  Commercial-Coal,              !- LCC Price Escalation Name
  Coal,                                   !- Resource
  2011,                                   !- Escalation Start Year
  January,                                !- Escalation Start Month
  0.9970,                                 !- Year Escalation 1
  1.0089,                                 !- Year Escalation 2
  1.0089,                                 !- Year Escalation 3
  0.9941,                                 !- Year Escalation 4
  0.9941,                                 !- Year Escalation 5
  1.0000,                                 !- Year Escalation 6
  1.0030,                                 !- Year Escalation 7
  1.0059,                                 !- Year Escalation 8
  1.0089,                                 !- Year Escalation 9
  1.0119,                                 !- Year Escalation 10
  1.0148,                                 !- Year Escalation 11
  1.0178,                                 !- Year Escalation 12
  1.0208,                                 !- Year Escalation 13
  1.0267,                                 !- Year Escalation 14
  1.0297,                                 !- Year Escalation 15
  1.0356,                                 !- Year Escalation 16
  1.0415,                                 !- Year Escalation 17
  1.0534,                                 !- Year Escalation 18
  1.0564,                                 !- Year Escalation 19
  1.0593,                                 !- Year Escalation 20
  1.0653,                                 !- Year Escalation 21
  1.0712,                                 !- Year Escalation 22
  1.0742,                                 !- Year Escalation 23
  1.0801,                                 !- Year Escalation 24
  1.0831,                                 !- Year Escalation 25
  1.0831,                                 !- Year Escalation 26
  1.0861,                                 !- Year Escalation 27
  1.0890,                                 !- Year Escalation 28
  1.0920,                                 !- Year Escalation 29
  1.0950;                                 !- Year Escalation 30

Building,
  bldg-1,                                 !- Name
  ,                                       !- North Axis {deg}
  ,                                       !- Terrain
  ,                                       !- Loads Convergence Tolerance Value
  ,                                       !- Temperature Convergence Tolerance Value {deltaC}
  ,                                       !- Solar Distribution
  ,                                       !- Maximum Number of Warmup Days
  ;                                       !- Minimum Number of Warmup Days

Shading:Building:Detailed,
  X-S-417,                                !- Name
  ,                                       !- Transmittance Schedule Name
  ,                                       !- Number of Vertices
  -6.955287, 25.30971, 9,                 !- X,Y,Z Vertex 1 {m}
  16.64471, 25.30971, 9,                  !- X,Y,Z Vertex 2 {m}
  16.64471, 26.60971, 8.249445,           !- X,Y,Z Vertex 3 {m}
  -6.955287, 26.60971, 8.249445;          !- X,Y,Z Vertex 4 {m}

Shading:Building:Detailed,
  X-S-418,                                !- Name
  ,                                       !- Transmittance Schedule Name
  ,                                       !- Number of Vertices
  -7.975287, 15.28471, 0,                 !- X,Y,Z Vertex 1 {m}
  -7.975287, 22.28471, 0,                 !- X,Y,Z Vertex 2 {m}
  -7.975287, 22.28471, 4.5,               !- X,Y,Z Vertex 3 {m}
  -7.975287, 15.28471, 4.5;               !- X,Y,Z Vertex 4 {m}

Zone,
  Default,                                !- Name
  ,                                       !- Direction of Relative North {deg}
  0,                                      !- X Origin {m}
  0,                                      !- Y Origin {m}
  0,                                      !- Z Origin {m}
  ,                                       !- Type
  ,                                       !- Multiplier
  ,                                       !- Ceiling Height {m}
  ,                                       !- Volume {m3}
  3166.409927208,                         !- Floor Area {m2}
  ,                                       !- Zone Inside Convection Algorithm
  ,                                       !- Zone Outside Convection Algorithm
  Yes;                                    !- Part of Total Floor Area

BuildingSurface:Detailed,
  B-00_002-E-F-14,                        !- Name
  Floor,                                  !- Surface Type
  Slab on Grade,                          !- Construction Name
  Default,                                !- Zone Name
  Outdoors,                               !- Outside Boundary Condition
  ,                                       !- Outside Boundary Condition Object
  SunExposed,                             !- Sun Exposure
  WindExposed,                            !- Wind Exposure
  ,                                       !- View Factor to Ground
  ,                                       !- Number of Vertices
  -3.410287, -0.5602865, 0,               !- X,Y,Z Vertex 1 {m}
  -3.410287, 3.234714, 0,                 !- X,Y,Z Vertex 2 {m}
  16.89971, 3.234714, 0,                  !- X,Y,Z Vertex 3 {m}
  16.89971, -0.5602865, 0;                !- X,Y,Z Vertex 4 {m}

BuildingSurface:Detailed,
  B-00_003-E-F-28,                        !- Name
  Floor,                                  !- Surface Type
  Slab on Grade,                          !- Construction Name
  Default,                                !- Zone Name
  Outdoors,                               !- Outside Boundary Condition
  ,                                       !- Outside Boundary Condition Object
  SunExposed,                             !- Sun Exposure
  WindExposed,                            !- Wind Exposure
  ,                                       !- View Factor to Ground
  ,                                       !- Number of Vertices
  -3.410287, -3.670286, 0,                !- X,Y,Z Vertex 1 {m}
  -3.410287, -0.5602865, 0,               !- X,Y,Z Vertex 2 {m}
  -1.085287, -0.5602865, 0,               !- X,Y,Z Vertex 3 {m}
  -1.085287, -3.670286, 0;                !- X,Y,Z Vertex 4 {m}

BuildingSurface:Detailed,
  B-00_004-E-F-33,                        !- Name
  Floor,                                  !- Surface Type
  Slab on Grade,                          !- Construction Name
  Default,                                !- Zone Name
  Outdoors,                               !- Outside Boundary Condition
  ,                                       !- Outside Boundary Condition Object
  SunExposed,                             !- Sun Exposure
  WindExposed,                            !- Wind Exposure
  ,                                       !- View Factor to Ground
  ,                                       !- Number of Vertices
  -2.735287, -15.86029, 0,                !- X,Y,Z Vertex 1 {m}
  -2.735287, -13.30029, 0,                !- X,Y,Z Vertex 2 {m}
  -0.01028702, -13.30029, 0,              !- X,Y,Z Vertex 3 {m}
  -0.01028702, -15.86029, 0;              !- X,Y,Z Vertex 4 {m}

BuildingSurface:Detailed,
  B-00_007-E-F-50,                        !- Name
  Floor,                                  !- Surface Type
  Slab on Grade,                          !- Construction Name
  Default,                                !- Zone Name
  Outdoors,                               !- Outside Boundary Condition
  ,                                       !- Outside Boundary Condition Object
  SunExposed,                             !- Sun Exposure
  WindExposed,                            !- Wind Exposure
  ,                                       !- View Factor to Ground
  ,                                       !- Number of Vertices
  -3.410287, -8.660287, 0,                !- X,Y,Z Vertex 1 {m}
  -3.410287, -8.085286, 0,                !- X,Y,Z Vertex 2 {m}
  -2.735287, -8.085286, 0,                !- X,Y,Z Vertex 3 {m}
  -2.735287, -8.660287, 0;                !- X,Y,Z Vertex 4 {m}

BuildingSurface:Detailed,
  B-00_007-E-F-51,                        !- Name
  Floor,                                  !- Surface Type
  Slab on Grade,                          !- Construction Name
  Default,                                !- Zone Name
  Outdoors,                               !- Outside Boundary Condition
  ,                                       !- Outside Boundary Condition Object
  SunExposed,                             !- Sun Exposure
  WindExposed,                            !- Wind Exposure
  ,                                       !- View Factor to Ground
  ,                                       !- Number of Vertices
  -3.410287, -11.76029, 0,                !- X,Y,Z Vertex 1 {m}
  -3.410287, -8.660287, 0,                !- X,Y,Z Vertex 2 {m}
  -2.735287, -8.660287, 0,                !- X,Y,Z Vertex 3 {m}
  -2.735287, -11.76029, 0;                !- X,Y,Z Vertex 4 {m}

BuildingSurface:Detailed,
  B-00_008-E-F-58,                        !- Name
  Floor,                                  !- Surface Type
  Slab on Grade,                          !- Construction Name
  Default,                                !- Zone Name
  Outdoors,                               !- Outside Boundary Condition
  ,                                       !- Outside Boundary Condition Object
  SunExposed,                             !- Sun Exposure
  WindExposed,                            !- Wind Exposure
  ,                                       !- View Factor to Ground
  ,                                       !- Number of Vertices
  -1.085287, -6.400286, 0,                !- X,Y,Z Vertex 1 {m}
  -1.085287, -3.670286, 0,                !- X,Y,Z Vertex 2 {m}
  5.414713, -3.670286, 0,                 !- X,Y,Z Vertex 3 {m}
  5.414713, -6.400286, 0;                 !- X,Y,Z Vertex 4 {m}

BuildingSurface:Detailed,
  B-00_009-E-F-66,                        !- Name
  Floor,                                  !- Surface Type
  Slab on Grade,                          !- Construction Name
  Default,                                !- Zone Name
  Outdoors,                               !- Outside Boundary Condition
  ,                                       !- Outside Boundary Condition Object
  SunExposed,                             !- Sun Exposure
  WindExposed,                            !- Wind Exposure
  ,                                       !- View Factor to Ground
  ,                                       !- Number of Vertices
  8.714713, -6.810287, 0,                 !- X,Y,Z Vertex 1 {m}
  8.714713, -3.935287, 0,                 !- X,Y,Z Vertex 2 {m}
  11.56471, -3.935287, 0,                 !- X,Y,Z Vertex 3 {m}
  11.56471, -6.610286, 0,                 !- X,Y,Z Vertex 4 {m}
  13.81471, -6.610286, 0,                 !- X,Y,Z Vertex 5 {m}
  13.81471, -7.910286, 0,                 !- X,Y,Z Vertex 6 {m}
  11.56471, -7.910286, 0,                 !- X,Y,Z Vertex 7 {m}
  11.56471, -23.63029, 0,                 !- X,Y,Z Vertex 8 {m}
  10.06471, -23.63029, 0,                 !- X,Y,Z Vertex 9 {m}
  10.06471, -6.810287, 0;                 !- X,Y,Z Vertex 10 {m}

BuildingSurface:Detailed,
  B-00_011-E-F-105,                       !- Name
  Floor,                                  !- Surface Type
  Slab on Grade,                          !- Construction Name
  Default,                                !- Zone Name
  Outdoors,                               !- Outside Boundary Condition
  ,                                       !- Outside Boundary Condition Object
  SunExposed,                             !- Sun Exposure
  WindExposed,                            !- Wind Exposure
  ,                                       !- View Factor to Ground
  ,                                       !- Number of Vertices
  11.56471, -23.63029, 0,                 !- X,Y,Z Vertex 1 {m}
  11.56471, -7.910286, 0,                 !- X,Y,Z Vertex 2 {m}
  16.89971, -7.910286, 0;                 !- X,Y,Z Vertex 3 {m}

BuildingSurface:Detailed,
  B-00_012-E-F-109,                       !- Name
  Floor,                                  !- Surface Type
  Slab on Grade,                          !- Construction Name
  Default,                                !- Zone Name
  Outdoors,                               !- Outside Boundary Condition
  ,                                       !- Outside Boundary Condition Object
  SunExposed,                             !- Sun Exposure
  WindExposed,                            !- Wind Exposure
  ,                                       !- View Factor to Ground
  ,                                       !- Number of Vertices
  -3.410287, -6.400286, 0,                !- X,Y,Z Vertex 1 {m}
  -3.410287, -3.670286, 0,                !- X,Y,Z Vertex 2 {m}
  -1.085287, -3.670286, 0,                !- X,Y,Z Vertex 3 {m}
  -1.085287, -6.400286, 0;                !- X,Y,Z Vertex 4 {m}

BuildingSurface:Detailed,
  B-00_015-E-F-118,                       !- Name
  Floor,                                  !- Surface Type
  Slab on Grade,                          !- Construction Name
  Default,                                !- Zone Name
  Outdoors,                               !- Outside Boundary Condition
  ,                                       !- Outside Boundary Condition Object
  SunExposed,                             !- Sun Exposure
  WindExposed,                            !- Wind Exposure
  ,                                       !- View Factor to Ground
  ,                                       !- Number of Vertices
  -3.410287, -15.26029, 0,                !- X,Y,Z Vertex 1 {m}
  -3.410287, -11.76029, 0,                !- X,Y,Z Vertex 2 {m}
  -2.735287, -11.76029, 0,                !- X,Y,Z Vertex 3 {m}
  -2.735287, -15.26029, 0;                !- X,Y,Z Vertex 4 {m}

BuildingSurface:Detailed,
  B-00_015-E-F-119,                       !- Name
  Floor,                                  !- Surface Type
  Slab on Grade,                          !- Construction Name
  Default,                                !- Zone Name
  Outdoors,                               !- Outside Boundary Condition
  ,                                       !- Outside Boundary Condition Object
  SunExposed,                             !- Sun Exposure
  WindExposed,                            !- Wind Exposure
  ,                                       !- View Factor to Ground
  ,                                       !- Number of Vertices
  -3.410287, -15.86029, 0,                !- X,Y,Z Vertex 1 {m}
  -3.410287, -15.26029, 0,                !- X,Y,Z Vertex 2 {m}
  -2.735287, -15.26029, 0,                !- X,Y,Z Vertex 3 {m}
  -2.735287, -15.86029, 0;                !- X,Y,Z Vertex 4 {m}

BuildingSurface:Detailed,
  B-00_016-E-F-125,                       !- Name
  Floor,                                  !- Surface Type
  Slab on Grade,                          !- Construction Name
  Default,                                !- Zone Name
  Outdoors,                               !- Outside Boundary Condition
  ,                                       !- Outside Boundary Condition Object
  SunExposed,                             !- Sun Exposure
  WindExposed,                            !- Wind Exposure
  ,                                       !- View Factor to Ground
  ,                                       !- Number of Vertices
  1.164713, -19.67529, 0,                 !- X,Y,Z Vertex 1 {m}
  1.164713, -17.88029, 0,                 !- X,Y,Z Vertex 2 {m}
  3.064713, -17.88029, 0,                 !- X,Y,Z Vertex 3 {m}
  3.064713, -19.67529, 0;                 !- X,Y,Z Vertex 4 {m}

BuildingSurface:Detailed,
  B-00_016-E-F-126,                       !- Name
  Floor,                                  !- Surface Type
  Slab on Grade,                          !- Construction Name
  Default,                                !- Zone Name
  Outdoors,                               !- Outside Boundary Condition
  ,                                       !- Outside Boundary Condition Object
  SunExposed,                             !- Sun Exposure
  WindExposed,                            !- Wind Exposure
  ,                                       !- View Factor to Ground
  ,                                       !- Number of Vertices
  3.064713, -19.67529, 0,                 !- X,Y,Z Vertex 1 {m}
  3.064713, -17.88029, 0,                 !- X,Y,Z Vertex 2 {m}
  5.624713, -17.88029, 0,                 !- X,Y,Z Vertex 3 {m}
  5.624713, -19.67529, 0;                 !- X,Y,Z Vertex 4 {m}

BuildingSurface:Detailed,
  B-00_017-E-F-133,                       !- Name
  Floor,                                  !- Surface Type
  Slab on Grade,                          !- Construction Name
  Default,                                !- Zone Name
  Outdoors,                               !- Outside Boundary Condition
  ,                                       !- Outside Boundary Condition Object
  SunExposed,                             !- Sun Exposure
  WindExposed,                            !- Wind Exposure
  ,                                       !- View Factor to Ground
  ,                                       !- Number of Vertices
  5.414713, -3.935287, 0,                 !- X,Y,Z Vertex 1 {m}
  5.414713, -0.5602865, 0,                !- X,Y,Z Vertex 2 {m}
  8.714713, -0.5602865, 0,                !- X,Y,Z Vertex 3 {m}
  8.714713, -3.935287, 0;                 !- X,Y,Z Vertex 4 {m}

BuildingSurface:Detailed,
  B-00_018-E-F-138,                       !- Name
  Floor,                                  !- Surface Type
  Slab on Grade,                          !- Construction Name
  Default,                                !- Zone Name
  Outdoors,                               !- Outside Boundary Condition
  ,                                       !- Outside Boundary Condition Object
  SunExposed,                             !- Sun Exposure
  WindExposed,                            !- Wind Exposure
  ,                                       !- View Factor to Ground
  ,                                       !- Number of Vertices
  8.714713, -3.935287, 0,                 !- X,Y,Z Vertex 1 {m}
  8.714713, -0.5602865, 0,                !- X,Y,Z Vertex 2 {m}
  13.81471, -0.5602865, 0,                !- X,Y,Z Vertex 3 {m}
  13.81471, -6.610286, 0,                 !- X,Y,Z Vertex 4 {m}
  11.56471, -6.610286, 0,                 !- X,Y,Z Vertex 5 {m}
  11.56471, -3.935287, 0;                 !- X,Y,Z Vertex 6 {m}

BuildingSurface:Detailed,
  B-00_019-E-F-142,                       !- Name
  Floor,                                  !- Surface Type
  Slab on Grade,                          !- Construction Name
  Default,                                !- Zone Name
  Outdoors,                               !- Outside Boundary Condition
  ,                                       !- Outside Boundary Condition Object
  SunExposed,                             !- Sun Exposure
  WindExposed,                            !- Wind Exposure
  ,                                       !- View Factor to Ground
  ,                                       !- Number of Vertices
  -2.735287, -13.30029, 0,                !- X,Y,Z Vertex 1 {m}
  -2.735287, -8.085286, 0,                !- X,Y,Z Vertex 2 {m}
  -0.01028702, -8.085286, 0,              !- X,Y,Z Vertex 3 {m}
  -0.01028702, -13.30029, 0;              !- X,Y,Z Vertex 4 {m}

BuildingSurface:Detailed,
  B-00_020-E-F-147,                       !- Name
  Floor,                                  !- Surface Type
  Slab on Grade,                          !- Construction Name
  Default,                                !- Zone Name
  Outdoors,                               !- Outside Boundary Condition
  ,                                       !- Outside Boundary Condition Object
  SunExposed,                             !- Sun Exposure
  WindExposed,                            !- Wind Exposure
  ,                                       !- View Factor to Ground
  ,                                       !- Number of Vertices