
OS:Version,
  {3b5f4588-933d-4183-91cb-71d52a996867}, !- Handle
  2.8.0;                                  !- Version Identifier

OS:Material,
  {a5951f9b-eea0-4ee7-88b4-1f632b216499}, !- Handle
  Exterior Wall,                          !- Name
  MediumRough,                            !- Roughness
  0.05,                                   !- Thickness {m}
  0.187,                                  !- Conductivity {W/m-K}
  290,                                    !- Density {kg/m3}
  14423.639958391;                        !- Specific Heat {J/kg-K}

OS:Material,
  {853037e3-03ca-4d55-9cf8-012532ffde05}, !- Handle
  {da607b46-3331-45ff-8a7d-ce659216185d}, !- Name
  MediumRough,                            !- Roughness
  0.05,                                   !- Thickness {m}
  0.187,                                  !- Conductivity {W/m-K}
  290,                                    !- Density {kg/m3}
  14423.639958391;                        !- Specific Heat {J/kg-K}

OS:Material,
  {38de3929-181a-480b-aa06-839165379897}, !- Handle
  Interior Floor,                         !- Name
  MediumRough,                            !- Roughness
  0.05,                                   !- Thickness {m}
  0.187,                                  !- Conductivity {W/m-K}
  290,                                    !- Density {kg/m3}
  14423.639958391;                        !- Specific Heat {J/kg-K}

OS:Material,
  {dd7bb258-c304-4641-899f-8a78202368bd}, !- Handle
  Interior Wall,                          !- Name
  MediumRough,                            !- Roughness
  0.05,                                   !- Thickness {m}
  0.187,                                  !- Conductivity {W/m-K}
  290,                                    !- Density {kg/m3}
  14423.639958391;                        !- Specific Heat {J/kg-K}

OS:Material,
  {2cafd864-d8c0-4f72-b562-f798e14d68ab}, !- Handle
  Raised Floor,                           !- Name
  MediumRough,                            !- Roughness
  0.05,                                   !- Thickness {m}
  0.187,                                  !- Conductivity {W/m-K}
  290,                                    !- Density {kg/m3}
  14423.639958391;                        !- Specific Heat {J/kg-K}

OS:Material,
  {cec25274-dc8c-4b9d-a03a-4e6125d8af53}, !- Handle
  Roof,                                   !- Name
  MediumRough,                            !- Roughness
  0.05,                                   !- Thickness {m}
  0.187,                                  !- Conductivity {W/m-K}
  290,                                    !- Density {kg/m3}
  14423.639958391;                        !- Specific Heat {J/kg-K}

OS:Material,
  {832c9357-5c43-4702-a2f9-7216255d1e0a}, !- Handle
  Slab on Grade,                          !- Name
  MediumRough,                            !- Roughness
  0.05,                                   !- Thickness {m}
  0.187,                                  !- Conductivity {W/m-K}
  290,                                    !- Density {kg/m3}
  14423.639958391;                        !- Specific Heat {J/kg-K}

OS:Material,
  {c4a2047b-0401-457b-be0b-5035c8f3b042}, !- Handle
  Underground Slab,                       !- Name
  MediumRough,                            !- Roughness
  0.05,                                   !- Thickness {m}
  0.187,                                  !- Conductivity {W/m-K}
  290,                                    !- Density {kg/m3}
  14423.639958391;                        !- Specific Heat {J/kg-K}

OS:Material,
  {7a806535-68ed-4c63-b1ec-8d8938a0e858}, !- Handle
  Underground Wall,                       !- Name
  MediumRough,                            !- Roughness
  0.05,                                   !- Thickness {m}
  0.187,                                  !- Conductivity {W/m-K}
  290,                                    !- Density {kg/m3}
  14423.639958391;                        !- Specific Heat {J/kg-K}

OS:Construction,
  {b40196ac-2f6b-4a41-976f-84fe5e6a159a}, !- Handle
  Ceiling,                                !- Name
  ,                                       !- Surface Rendering Name
  {a5951f9b-eea0-4ee7-88b4-1f632b216499}; !- Layer 1

OS:Construction,
  {0f599d7a-455f-409b-a6cf-55df7d3ff6ab}, !- Handle
  Exterior Wall,                          !- Name
  ,                                       !- Surface Rendering Name
  {853037e3-03ca-4d55-9cf8-012532ffde05}; !- Layer 1

OS:Construction,
  {aa7d89c6-238a-411b-a94a-533d5f8de50f}, !- Handle
  Interior Floor,                         !- Name
  ,                                       !- Surface Rendering Name
  {38de3929-181a-480b-aa06-839165379897}; !- Layer 1

OS:Construction,
  {e4dd4c4c-b16f-481d-bbfe-e9bfdd5c0bba}, !- Handle
  Interior Wall,                          !- Name
  ,                                       !- Surface Rendering Name
  {dd7bb258-c304-4641-899f-8a78202368bd}; !- Layer 1

OS:Construction,
  {d01cc6b8-6482-47db-845d-6600438061a4}, !- Handle
  Raised Floor,                           !- Name
  ,                                       !- Surface Rendering Name
  {2cafd864-d8c0-4f72-b562-f798e14d68ab}; !- Layer 1

OS:Construction,
  {3653e317-7582-48c0-a7ba-a57841d8c599}, !- Handle
  Roof,                                   !- Name
  ,                                       !- Surface Rendering Name
  {cec25274-dc8c-4b9d-a03a-4e6125d8af53}; !- Layer 1

OS:Construction,
  {9cb20d0d-ba30-48fa-b204-24fe4f3a4f1c}, !- Handle
  Slab on Grade,                          !- Name
  ,                                       !- Surface Rendering Name
  {832c9357-5c43-4702-a2f9-7216255d1e0a}; !- Layer 1

OS:Construction,
  {8dd03ca0-0b22-4cb1-9ae7-a0ec54a42e37}, !- Handle
  {2ceb7c99-da12-4ecf-b8b1-84ff6c403c22}, !- Name
  ,                                       !- Surface Rendering Name
  {c4a2047b-0401-457b-be0b-5035c8f3b042}; !- Layer 1

OS:Construction,
  {e5b3dd1e-fc39-4c4c-b04e-82fc1ce193d4}, !- Handle
  Underground Wall,                       !- Name
  ,                                       !- Surface Rendering Name
  {7a806535-68ed-4c63-b1ec-8d8938a0e858}; !- Layer 1

OS:Construction,
  {f12e414d-0874-4b7b-8742-88fc4b07a49b}, !- Handle
  WinInst : SIM_EXT_GLZ,                  !- Name
  ,                                       !- Surface Rendering Name
  {a201b52a-e71e-4345-a91d-9284b6e402a1}; !- Layer 1

OS:WindowMaterial:SimpleGlazingSystem,
  {a201b52a-e71e-4345-a91d-9284b6e402a1}, !- Handle
  {7855ba52-2a51-4b14-8780-ce39acf85f03}, !- Name
  0.1,                                    !- U-Factor {W/m2-K}
  0.1;                                    !- Solar Heat Gain Coefficient

OS:Construction,
  {22a0f0cc-7e4c-4693-867d-6f9988fc12b4}, !- Handle
  {4407cdd2-ef6a-4fb5-b0b8-1cc8ffefba07}, !- Name
  ,                                       !- Surface Rendering Name
  {9d367a0f-cc96-42b8-ba3c-805caf309c49}; !- Layer 1

OS:WindowMaterial:SimpleGlazingSystem,
  {9d367a0f-cc96-42b8-ba3c-805caf309c49}, !- Handle
  {ffc8007f-c86a-4503-8893-bc1a83a16a36}, !- Name
  0.1,                                    !- U-Factor {W/m2-K}
  0.1;                                    !- Solar Heat Gain Coefficient

OS:Construction,
  {8b7ea9e7-114f-4844-bb31-16eaf35b9993}, !- Handle
  Skylight_ver00 : SIM_EXT_GLZ_SKY DF01,  !- Name
  ,                                       !- Surface Rendering Name
  {3d22131a-d268-47d9-9dd7-1125dc9095aa}; !- Layer 1

OS:WindowMaterial:SimpleGlazingSystem,
  {3d22131a-d268-47d9-9dd7-1125dc9095aa}, !- Handle
  {b00402e3-d1d4-4f9b-9cb6-6c517d20ab9c}, !- Name
  0.1,                                    !- U-Factor {W/m2-K}
  0.1;                                    !- Solar Heat Gain Coefficient

OS:Construction,
  {b8fa0ed3-385e-4d3f-b36a-b578b3cd1da3}, !- Handle
  Doors_ver01 : SIM_INT_SLD,              !- Name
  ,                                       !- Surface Rendering Name
  {9977e1b1-b841-4b07-8ff7-5c955dd9a89a}; !- Layer 1

OS:WindowMaterial:SimpleGlazingSystem,
  {9977e1b1-b841-4b07-8ff7-5c955dd9a89a}, !- Handle
  {7debdccf-91b0-424f-a263-2dc18241ac54}, !- Name
  0.1,                                    !- U-Factor {W/m2-K}
  0.1;                                    !- Solar Heat Gain Coefficient

OS:ThermalZone,
  {653bd3ef-44da-4a5d-a84f-407a4da645c7}, !- Handle
  Default,                                !- Name
  ,                                       !- Multiplier
  ,                                       !- Ceiling Height {m}
  ,                                       !- Volume {m3}
  ,                                       !- Floor Area {m2}
  ,                                       !- Zone Inside Convection Algorithm
  ,                                       !- Zone Outside Convection Algorithm
  ,                                       !- Zone Conditioning Equipment List Name
  {222e92e1-f416-45fd-9ccc-0d716c553bf5}, !- Zone Air Inlet Port List
  {162269df-526b-4a55-8a7c-874962953d85}, !- Zone Air Exhaust Port List
  {16f396ce-2597-424f-975c-f0f4678df990}, !- Zone Air Node Name
  {b4410c0e-98d6-4fa6-905d-f64dc03f083e}, !- Zone Return Air Port List
  ,                                       !- Primary Daylighting Control Name
  ,                                       !- Fraction of Zone Controlled by Primary Daylighting Control
  ,                                       !- Secondary Daylighting Control Name
  ,                                       !- Fraction of Zone Controlled by Secondary Daylighting Control
  ,                                       !- Illuminance Map Name
  ,                                       !- Group Rendering Name
  ,                                       !- Thermostat Name
  No;                                     !- Use Ideal Air Loads

OS:Node,
  {8f868b0c-adb0-423f-9c49-7216bb7eb8d0}, !- Handle
  {c0aabc7e-0c4a-4416-ae9f-b006e0cd4649}, !- Name
  {16f396ce-2597-424f-975c-f0f4678df990}, !- Inlet Port
  ;                                       !- Outlet Port

OS:Connection,
  {16f396ce-2597-424f-975c-f0f4678df990}, !- Handle
  {7b26d5e8-942a-4a57-b83b-0c10cc4ce086}, !- Name
  {653bd3ef-44da-4a5d-a84f-407a4da645c7}, !- Source Object
  11,                                     !- Outlet Port
  {8f868b0c-adb0-423f-9c49-7216bb7eb8d0}, !- Target Object
  2;                                      !- Inlet Port

OS:PortList,
  {222e92e1-f416-45fd-9ccc-0d716c553bf5}, !- Handle
  {b7c87ccd-9d60-46b7-b3e9-4658260272c4}, !- Name
  {653bd3ef-44da-4a5d-a84f-407a4da645c7}; !- HVAC Component

OS:PortList,
  {162269df-526b-4a55-8a7c-874962953d85}, !- Handle
  {6bca19a7-cb25-4dde-850a-28a88ef00ac3}, !- Name
  {653bd3ef-44da-4a5d-a84f-407a4da645c7}; !- HVAC Component

OS:PortList,
  {b4410c0e-98d6-4fa6-905d-f64dc03f083e}, !- Handle
  {118c79fe-26f7-46af-8751-db31cfc8d160}, !- Name
  {653bd3ef-44da-4a5d-a84f-407a4da645c7}; !- HVAC Component

OS:Sizing:Zone,
  {e092f155-1421-4b9a-b02b-0412f23e1350}, !- Handle
  {653bd3ef-44da-4a5d-a84f-407a4da645c7}, !- Zone or ZoneList Name
  SupplyAirTemperature,                   !- Zone Cooling Design Supply Air Temperature Input Method
  14,                                     !- Zone Cooling Design Supply Air Temperature {C}
  11.11,                                  !- Zone Cooling Design Supply Air Temperature Difference {deltaC}
  SupplyAirTemperature,                   !- Zone Heating Design Supply Air Temperature Input Method
  40,                                     !- Zone Heating Design Supply Air Temperature {C}
  11.11,                                  !- Zone Heating Design Supply Air Temperature Difference {deltaC}
  0.0085,                                 !- Zone Cooling Design Supply Air Humidity Ratio {kg-H2O/kg-air}
  0.008,                                  !- Zone Heating Design Supply Air Humidity Ratio {kg-H2O/kg-air}
  ,                                       !- Zone Heating Sizing Factor
  ,                                       !- Zone Cooling Sizing Factor
  DesignDay,                              !- Cooling Design Air Flow Method
  ,                                       !- Cooling Design Air Flow Rate {m3/s}
  ,                                       !- Cooling Minimum Air Flow per Zone Floor Area {m3/s-m2}
  ,                                       !- Cooling Minimum Air Flow {m3/s}
  ,                                       !- Cooling Minimum Air Flow Fraction
  DesignDay,                              !- Heating Design Air Flow Method
  ,                                       !- Heating Design Air Flow Rate {m3/s}
  ,                                       !- Heating Maximum Air Flow per Zone Floor Area {m3/s-m2}
  ,                                       !- Heating Maximum Air Flow {m3/s}
  ,                                       !- Heating Maximum Air Flow Fraction
  ,                                       !- Design Zone Air Distribution Effectiveness in Cooling Mode
  ,                                       !- Design Zone Air Distribution Effectiveness in Heating Mode
  No,                                     !- Account for Dedicated Outdoor Air System
  NeutralSupplyAir,                       !- Dedicated Outdoor Air System Control Strategy
  autosize,                               !- Dedicated Outdoor Air Low Setpoint Temperature for Design {C}
  autosize;                               !- Dedicated Outdoor Air High Setpoint Temperature for Design {C}

OS:ZoneHVAC:EquipmentList,
  {730faadf-0542-4fe3-add8-73748dd1ade8}, !- Handle
  {19f417f2-1591-4222-aa1e-9a8ee6dda151}, !- Name
  {653bd3ef-44da-4a5d-a84f-407a4da645c7}; !- Thermal Zone

OS:AdditionalProperties,
  {00e59952-4e27-443b-b484-43a83c65a8f3}, !- Handle
  {653bd3ef-44da-4a5d-a84f-407a4da645c7}, !- Object Name
  CADObjectId,                            !- Feature Name 1
  String,                                 !- Feature Data Type 1
  293242;                                 !- Feature Value 1

OS:Facility,
  {9ef0b66b-267b-42bc-b3fa-31e5e825fc0c}; !- Handle

OS:Building,
  {a6d0a125-8df8-4699-8cab-fa8deb2fd2d7}, !- Handle
  bldg-1,                                 !- Name
  ,                                       !- Building Sector Type
  ,                                       !- North Axis {deg}
  ,                                       !- Nominal Floor to Floor Height {m}
  ,                                       !- Space Type Name
  ,                                       !- Default Construction Set Name
  ;                                       !- Default Schedule Set Name

OS:BuildingStory,
  {4ee893d9-faed-4b16-a028-43553af32baa}, !- Handle
  Level 00,                               !- Name
  ,                                       !- Nominal Z Coordinate {m}
  ,                                       !- Nominal Floor to Floor Height {m}
  ,                                       !- Default Construction Set Name
  ,                                       !- Default Schedule Set Name
  ;                                       !- Group Rendering Name

OS:BuildingStory,
  {5b29c6da-4a2a-42c3-a28a-87f60c4398aa}, !- Handle
  Level B1,                               !- Name
  ,                                       !- Nominal Z Coordinate {m}
  ,                                       !- Nominal Floor to Floor Height {m}
  ,                                       !- Default Construction Set Name
  ,                                       !- Default Schedule Set Name
  ;                                       !- Group Rendering Name

OS:BuildingStory,
  {48a817d5-992d-411b-b2f9-47602abb7b00}, !- Handle
  Level 01,                               !- Name
  ,                                       !- Nominal Z Coordinate {m}
  ,                                       !- Nominal Floor to Floor Height {m}
  ,                                       !- Default Construction Set Name
  ,                                       !- Default Schedule Set Name
  ;                                       !- Group Rendering Name

OS:Space,
  {1c26d744-963e-4228-a9a5-430c5ed4cab2}, !- Handle
  00_001 WC,                              !- Name
  ,                                       !- Space Type Name
  ,                                       !- Default Construction Set Name
  ,                                       !- Default Schedule Set Name
  ,                                       !- Direction of Relative North {deg}
  ,                                       !- X Origin {m}
  ,                                       !- Y Origin {m}
  ,                                       !- Z Origin {m}
  {4ee893d9-faed-4b16-a028-43553af32baa}, !- Building Story Name
  {653bd3ef-44da-4a5d-a84f-407a4da645c7}; !- Thermal Zone Name

OS:AdditionalProperties,
  {220ee23b-cbfe-4665-a5ec-cec2597184f6}, !- Handle
  {1c26d744-963e-4228-a9a5-430c5ed4cab2}, !- Object Name
  CADObjectId,                            !- Feature Name 1
  String,                                 !- Feature Data Type 1
  707673;                                 !- Feature Value 1

OS:Space,
  {7dbe5452-b29c-4277-958d-e3a75dc79c83}, !- Handle
  00_002 Circulation,                     !- Name
  ,                                       !- Space Type Name
  ,                                       !- Default Construction Set Name
  ,                                       !- Default Schedule Set Name
  ,                                       !- Direction of Relative North {deg}
  ,                                       !- X Origin {m}
  ,                                       !- Y Origin {m}
  ,                                       !- Z Origin {m}
  {4ee893d9-faed-4b16-a028-43553af32baa}, !- Building Story Name
  {653bd3ef-44da-4a5d-a84f-407a4da645c7}; !- Thermal Zone Name

OS:AdditionalProperties,
  {57b22e4b-9964-4aee-81c1-94b4069706db}, !- Handle
  {7dbe5452-b29c-4277-958d-e3a75dc79c83}, !- Object Name
  CADObjectId,                            !- Feature Name 1
  String,                                 !- Feature Data Type 1
  707674;                                 !- Feature Value 1

OS:Space,
  {758dcb6c-5dbe-4e19-b8a8-b440c506fed4}, !- Handle
  00_003 LAN,                             !- Name
  ,                                       !- Space Type Name
  ,                                       !- Default Construction Set Name
  ,                                       !- Default Schedule Set Name
  ,                                       !- Direction of Relative North {deg}
  ,                                       !- X Origin {m}
  ,                                       !- Y Origin {m}
  ,                                       !- Z Origin {m}
  {4ee893d9-faed-4b16-a028-43553af32baa}, !- Building Story Name
  {653bd3ef-44da-4a5d-a84f-407a4da645c7}; !- Thermal Zone Name

OS:AdditionalProperties,
  {c810dfab-f394-47eb-8989-3a0f7fa3d085}, !- Handle
  {758dcb6c-5dbe-4e19-b8a8-b440c506fed4}, !- Object Name
  CADObjectId,                            !- Feature Name 1
  String,                                 !- Feature Data Type 1
  707675;                                 !- Feature Value 1

OS:Space,
  {4d5ee5a9-800a-4f50-b5f7-0a35ac55359b}, !- Handle
  00_004 Lift,                            !- Name
  ,                                       !- Space Type Name
  ,                                       !- Default Construction Set Name
  ,                                       !- Default Schedule Set Name
  ,                                       !- Direction of Relative North {deg}
  ,                                       !- X Origin {m}
  ,                                       !- Y Origin {m}
  ,                                       !- Z Origin {m}
  {4ee893d9-faed-4b16-a028-43553af32baa}, !- Building Story Name
  {653bd3ef-44da-4a5d-a84f-407a4da645c7}; !- Thermal Zone Name

OS:AdditionalProperties,
  {37824ce3-8e94-4643-8265-327b794795bc}, !- Handle
  {4d5ee5a9-800a-4f50-b5f7-0a35ac55359b}, !- Object Name
  CADObjectId,                            !- Feature Name 1
  String,                                 !- Feature Data Type 1
  707676;                                 !- Feature Value 1

OS:Space,
  {395312c8-e715-45b8-8fc8-8d5070942c1f}, !- Handle
  00_005 Lift,                            !- Name
  ,                                       !- Space Type Name
  ,                                       !- Default Construction Set Name
  ,                                       !- Default Schedule Set Name
  ,                                       !- Direction of Relative North {deg}
  ,                                       !- X Origin {m}
  ,                                       !- Y Origin {m}
  ,                                       !- Z Origin {m}
  {4ee893d9-faed-4b16-a028-43553af32baa}, !- Building Story Name
  {653bd3ef-44da-4a5d-a84f-407a4da645c7}; !- Thermal Zone Name

OS:AdditionalProperties,
  {2d5aa87a-c322-47ea-b2fc-b8a824dfd836}, !- Handle
  {395312c8-e715-45b8-8fc8-8d5070942c1f}, !- Object Name
  CADObjectId,                            !- Feature Name 1
  String,                                 !- Feature Data Type 1
  707677;                                 !- Feature Value 1

OS:Space,
  {c7788d67-246a-4249-96c6-9886b09febb7}, !- Handle
  00_006 staircase,                       !- Name
  ,                                       !- Space Type Name
  ,                                       !- Default Construction Set Name
  ,                                       !- Default Schedule Set Name
  ,                                       !- Direction of Relative North {deg}
  ,                                       !- X Origin {m}
  ,                                       !- Y Origin {m}
  ,                                       !- Z Origin {m}
  {4ee893d9-faed-4b16-a028-43553af32baa}, !- Building Story Name
  {653bd3ef-44da-4a5d-a84f-407a4da645c7}; !- Thermal Zone Name

OS:AdditionalProperties,
  {3be48908-7d6f-4e0b-9bea-b9af09bd07c5}, !- Handle
  {c7788d67-246a-4249-96c6-9886b09febb7}, !- Object Name
  CADObjectId,                            !- Feature Name 1
  String,                                 !- Feature Data Type 1
  707678;                                 !- Feature Value 1

OS:Space,
  {364179da-9612-41be-95a9-231ee59242e2}, !- Handle
  00_007 Shaft_ventilation,               !- Name
  ,                                       !- Space Type Name
  ,                                       !- Default Construction Set Name
  ,                                       !- Default Schedule Set Name
  ,                                       !- Direction of Relative North {deg}
  ,                                       !- X Origin {m}
  ,                                       !- Y Origin {m}
  ,                                       !- Z Origin {m}
  {4ee893d9-faed-4b16-a028-43553af32baa}, !- Building Story Name
  {653bd3ef-44da-4a5d-a84f-407a4da645c7}; !- Thermal Zone Name

OS:AdditionalProperties,
  {58db8147-5357-4d02-8b79-1e68fd9c7ca3}, !- Handle
  {364179da-9612-41be-95a9-231ee59242e2}, !- Object Name
  CADObjectId,                            !- Feature Name 1
  String,                                 !- Feature Data Type 1
  707679;                                 !- Feature Value 1

OS:Space,
  {46aa5506-739b-4e26-b8f7-62be4a089e3b}, !- Handle
  00_008 Lift,                            !- Name
  ,                                       !- Space Type Name
  ,                                       !- Default Construction Set Name
  ,                                       !- Default Schedule Set Name
  ,                                       !- Direction of Relative North {deg}
  ,                                       !- X Origin {m}
  ,                                       !- Y Origin {m}
  ,                                       !- Z Origin {m}
  {4ee893d9-faed-4b16-a028-43553af32baa}, !- Building Story Name
  {653bd3ef-44da-4a5d-a84f-407a4da645c7}; !- Thermal Zone Name

OS:AdditionalProperties,
  {0f93520a-fe3b-4367-bd57-8008d7949974}, !- Handle
  {46aa5506-739b-4e26-b8f7-62be4a089e3b}, !- Object Name
  CADObjectId,                            !- Feature Name 1
  String,                                 !- Feature Data Type 1
  707680;                                 !- Feature Value 1

OS:Space,
  {bd42490f-8519-40ef-80e1-0ab4a7c6aa2f}, !- Handle
  00_009 Circulation,                     !- Name
  ,                                       !- Space Type Name
  ,                                       !- Default Construction Set Name
  ,                                       !- Default Schedule Set Name
  ,                                       !- Direction of Relative North {deg}
  ,                                       !- X Origin {m}
  ,                                       !- Y Origin {m}
  ,                                       !- Z Origin {m}
  {4ee893d9-faed-4b16-a028-43553af32baa}, !- Building Story Name
  {653bd3ef-44da-4a5d-a84f-407a4da645c7}; !- Thermal Zone Name

OS:AdditionalProperties,
  {37748063-9459-486c-821a-50d71e70f4f3}, !- Handle
  {bd42490f-8519-40ef-80e1-0ab4a7c6aa2f}, !- Object Name
  CADObjectId,                            !- Feature Name 1
  String,                                 !- Feature Data Type 1
  707681;                                 !- Feature Value 1

OS:Space,
  {67d03d9c-692c-4159-8c61-a7574141ea74}, !- Handle
  00_010 Office,                          !- Name
  ,                                       !- Space Type Name
  ,                                       !- Default Construction Set Name
  ,                                       !- Default Schedule Set Name
  ,                                       !- Direction of Relative North {deg}
  ,                                       !- X Origin {m}
  ,                                       !- Y Origin {m}
  ,                                       !- Z Origin {m}
  {4ee893d9-faed-4b16-a028-43553af32baa}, !- Building Story Name
  {653bd3ef-44da-4a5d-a84f-407a4da645c7}; !- Thermal Zone Name

OS:AdditionalProperties,
  {cfdd4078-06d6-4f7a-93b7-13868f367784}, !- Handle
  {67d03d9c-692c-4159-8c61-a7574141ea74}, !- Object Name
  CADObjectId,                            !- Feature Name 1
  String,                                 !- Feature Data Type 1
  707682;                                 !- Feature Value 1

OS:Space,
  {20179980-8a11-4fca-8a52-9a0e747d4dcb}, !- Handle
  00_011 Office,                          !- Name
  ,                                       !- Space Type Name
  ,                                       !- Default Construction Set Name
  ,                                       !- Default Schedule Set Name
  ,                                       !- Direction of Relative North {deg}
  ,                                       !- X Origin {m}
  ,                                       !- Y Origin {m}
  ,                                       !- Z Origin {m}
  {4ee893d9-faed-4b16-a028-43553af32baa}, !- Building Story Name
  {653bd3ef-44da-4a5d-a84f-407a4da645c7}; !- Thermal Zone Name

OS:AdditionalProperties,
  {2edad7f2-f4de-4465-b47c-7c1ea7c543fe}, !- Handle
  {20179980-8a11-4fca-8a52-9a0e747d4dcb}, !- Object Name
  CADObjectId,                            !- Feature Name 1
  String,                                 !- Feature Data Type 1
  707683;                                 !- Feature Value 1

OS:Space,
  {897064ac-b753-437b-b8a4-7a2b006f8d2a}, !- Handle
  00_012 Shaft_ventilation,               !- Name
  ,                                       !- Space Type Name
  ,                                       !- Default Construction Set Name
  ,                                       !- Default Schedule Set Name
  ,                                       !- Direction of Relative North {deg}
  ,                                       !- X Origin {m}
  ,                                       !- Y Origin {m}
  ,                                       !- Z Origin {m}
  {4ee893d9-faed-4b16-a028-43553af32baa}, !- Building Story Name
  {653bd3ef-44da-4a5d-a84f-407a4da645c7}; !- Thermal Zone Name

OS:AdditionalProperties,
  {76c0bca7-7347-4ade-be29-75d165e9c1c4}, !- Handle
  {897064ac-b753-437b-b8a4-7a2b006f8d2a}, !- Object Name
  CADObjectId,                            !- Feature Name 1
  String,                                 !- Feature Data Type 1
  707685;                                 !- Feature Value 1

OS:Space,
  {fb7bacce-fbca-4a85-a3b4-e5683c9517e6}, !- Handle
  00_013 Lift,                            !- Name
  ,                                       !- Space Type Name
  ,                                       !- Default Construction Set Name
  ,                                       !- Default Schedule Set Name
  ,                                       !- Direction of Relative North {deg}
  ,                                       !- X Origin {m}
  ,                                       !- Y Origin {m}
  ,                                       !- Z Origin {m}
  {4ee893d9-faed-4b16-a028-43553af32baa}, !- Building Story Name
  {653bd3ef-44da-4a5d-a84f-407a4da645c7}; !- Thermal Zone Name

OS:AdditionalProperties,
  {a131b44a-7db3-48ad-a86e-5115e63644e9}, !- Handle
  {fb7bacce-fbca-4a85-a3b4-e5683c9517e6}, !- Object Name
  CADObjectId,                            !- Feature Name 1
  String,                                 !- Feature Data Type 1
  707686;                                 !- Feature Value 1

OS:Space,
  {15a0aa3d-5d8d-426e-9ce3-1badead5a344}, !- Handle
  00_014 Lift,                            !- Name
  ,                                       !- Space Type Name
  ,                                       !- Default Construction Set Name
  ,                                       !- Default Schedule Set Name
  ,                                       !- Direction of Relative North {deg}
  ,                                       !- X Origin {m}
  ,                                       !- Y Origin {m}
  ,                                       !- Z Origin {m}
  {4ee893d9-faed-4b16-a028-43553af32baa}, !- Building Story Name
  {653bd3ef-44da-4a5d-a84f-407a4da645c7}; !- Thermal Zone Name

OS:AdditionalProperties,
  {ae9bd0d9-d841-4ef1-84ea-5debff1199f0}, !- Handle
  {15a0aa3d-5d8d-426e-9ce3-1badead5a344}, !- Object Name