
OS:Version,
  {fe0007d9-f159-4d25-8ecc-67ed3e89dcb7}, !- Handle
  2.8.0;                                  !- Version Identifier

OS:Material,
  {b2c7ae83-0731-4e8c-b53f-778e79544bc7}, !- Handle
  External Side Wall,                     !- Name
  MediumRough,                            !- Roughness
  0.025,                                  !- Thickness {m}
  0.187,                                  !- Conductivity {W/m-K}
  290,                                    !- Density {kg/m3}
  14423.639958391;                        !- Specific Heat {J/kg-K}

OS:Material,
  {eac21646-1c37-433b-8248-ad57bf02baf9}, !- Handle
  Inernal Side,                           !- Name
  MediumRough,                            !- Roughness
  0.025,                                  !- Thickness {m}
  0.187,                                  !- Conductivity {W/m-K}
  290,                                    !- Density {kg/m3}
  14423.639958391;                        !- Specific Heat {J/kg-K}

OS:Material,
  {27ad3366-5e79-48d6-bd3b-e50ab7c25660}, !- Handle
  External Side(ground),                  !- Name
  MediumRough,                            !- Roughness
  0.025,                                  !- Thickness {m}
  0.187,                                  !- Conductivity {W/m-K}
  290,                                    !- Density {kg/m3}
  14423.639958391;                        !- Specific Heat {J/kg-K}

OS:Material,
  {a659087d-8f27-4ce3-80bb-970e588b8671}, !- Handle
  External Side Roof,                     !- Name
  MediumRough,                            !- Roughness
  0.025,                                  !- Thickness {m}
  0.187,                                  !- Conductivity {W/m-K}
  290,                                    !- Density {kg/m3}
  14423.639958391;                        !- Specific Heat {J/kg-K}

OS:Material,
  {2bd76679-f97b-412b-af86-e1fe8765fec5}, !- Handle
  Core Wall,                              !- Name
  MediumRough,                            !- Roughness
  0.05,                                   !- Thickness {m}
  0.187,                                  !- Conductivity {W/m-K}
  290,                                    !- Density {kg/m3}
  14423.639958391;                        !- Specific Heat {J/kg-K}

OS:Material,
  {eebc1a50-a932-4315-9a88-8116c35756d4}, !- Handle
  Internal Partition,                     !- Name
  MediumRough,                            !- Roughness
  0.05,                                   !- Thickness {m}
  0.187,                                  !- Conductivity {W/m-K}
  290,                                    !- Density {kg/m3}
  14423.639958391;                        !- Specific Heat {J/kg-K}

OS:Construction,
  {c0b73c85-e72a-446d-9901-baa94c83073f}, !- Handle
  Floor : SIM_EXT_GRD_FLR FLR01,          !- Name
  ,                                       !- Surface Rendering Name
  {eac21646-1c37-433b-8248-ad57bf02baf9}, !- Layer 1
  {27ad3366-5e79-48d6-bd3b-e50ab7c25660}; !- Layer 2

OS:Construction,
  {c8380a1c-3d15-4b55-8d87-1034f34cd238}, !- Handle
  Basic Wall : SIM_EXT_SLD,               !- Name
  ,                                       !- Surface Rendering Name
  {b2c7ae83-0731-4e8c-b53f-778e79544bc7}, !- Layer 1
  {eac21646-1c37-433b-8248-ad57bf02baf9}; !- Layer 2

OS:Construction,
  {281dc3f0-c265-4b2a-b41d-e318314f2ff3}, !- Handle
  {3d5d0a5b-ab4c-4b3e-b073-63b4f1b39023}, !- Name
  ,                                       !- Surface Rendering Name
  {eac21646-1c37-433b-8248-ad57bf02baf9}, !- Layer 1
  {27ad3366-5e79-48d6-bd3b-e50ab7c25660}; !- Layer 2

OS:Construction,
  {23655f13-ee21-4ad0-9b3a-7993d0f86789}, !- Handle
  Basic Wall : SIM_INT_SLD_Core,          !- Name
  ,                                       !- Surface Rendering Name
  {2bd76679-f97b-412b-af86-e1fe8765fec5}; !- Layer 1

OS:Construction,
  {9fd06386-6dbc-4797-ac38-750a7e313022}, !- Handle
  {9b519512-706a-4079-810a-18e8686e0312}, !- Name
  ,                                       !- Surface Rendering Name
  {eac21646-1c37-433b-8248-ad57bf02baf9}, !- Layer 1
  {27ad3366-5e79-48d6-bd3b-e50ab7c25660}; !- Layer 2

OS:Construction,
  {6f2e56b2-d705-4149-8853-42c2cf790fff}, !- Handle
  Basic Roof : SIM_EXT_SLD_Roof DA01,     !- Name
  ,                                       !- Surface Rendering Name
  {a659087d-8f27-4ce3-80bb-970e588b8671}, !- Layer 1
  {eac21646-1c37-433b-8248-ad57bf02baf9}; !- Layer 2

OS:Construction,
  {35b0c7f7-523e-4259-9d2e-367e82a9d3a1}, !- Handle
  {b2712250-2f76-48ef-8b49-375a1512cd69}, !- Name
  ,                                       !- Surface Rendering Name
  {eac21646-1c37-433b-8248-ad57bf02baf9}, !- Layer 1
  {27ad3366-5e79-48d6-bd3b-e50ab7c25660}; !- Layer 2

OS:Construction,
  {599d4475-20ab-4b29-829c-0b77c553b0f2}, !- Handle
  {703a70bf-f642-4613-8c86-cfa9fe057726}, !- Name
  ,                                       !- Surface Rendering Name
  {eac21646-1c37-433b-8248-ad57bf02baf9}, !- Layer 1
  {27ad3366-5e79-48d6-bd3b-e50ab7c25660}; !- Layer 2

OS:Construction,
  {248b2be5-5558-4cd6-a9a8-ca2cf891f2a2}, !- Handle
  {0a4625a0-7d7c-49d6-accd-0028d291e4ce}, !- Name
  ,                                       !- Surface Rendering Name
  {b2c7ae83-0731-4e8c-b53f-778e79544bc7}, !- Layer 1
  {eac21646-1c37-433b-8248-ad57bf02baf9}; !- Layer 2

OS:Construction,
  {66b886e2-0c14-440f-a921-e9c084dae4d1}, !- Handle
  WinInst : SIM_EXT_GLZ,                  !- Name
  ,                                       !- Surface Rendering Name
  {7b607373-6947-4c90-af24-a2dd54044847}; !- Layer 1

OS:WindowMaterial:SimpleGlazingSystem,
  {7b607373-6947-4c90-af24-a2dd54044847}, !- Handle
  {10efa026-f175-45fb-af83-458627e29660}, !- Name
  0.1,                                    !- U-Factor {W/m2-K}
  0.1;                                    !- Solar Heat Gain Coefficient

OS:Construction,
  {b20fb80c-de41-4939-b572-3cf704ca1373}, !- Handle
  Skylight_ver00 : SIM_EXT_GLZ_SKY DF01,  !- Name
  ,                                       !- Surface Rendering Name
  {032142f0-7fe8-4f76-847b-0b31e323aafe}; !- Layer 1

OS:WindowMaterial:SimpleGlazingSystem,
  {032142f0-7fe8-4f76-847b-0b31e323aafe}, !- Handle
  {61ba0af0-4724-40a7-b966-6d878c60a465}, !- Name
  0.1,                                    !- U-Factor {W/m2-K}
  0.1;                                    !- Solar Heat Gain Coefficient

OS:Construction,
  {a1d3eeb2-6e40-474b-b690-13150d9dd3ef}, !- Handle
  Doors_ver01 : SIM_INT_SLD,              !- Name
  ,                                       !- Surface Rendering Name
  {a926f49c-bd6b-4726-86d3-0899e3e29a46}; !- Layer 1

OS:WindowMaterial:SimpleGlazingSystem,
  {a926f49c-bd6b-4726-86d3-0899e3e29a46}, !- Handle
  {364e4ce0-f6ae-4bf5-ac41-a4004ba25090}, !- Name
  0.1,                                    !- U-Factor {W/m2-K}
  0.1;                                    !- Solar Heat Gain Coefficient

OS:ThermalZone,
  {b06d197e-733a-4466-97a2-de78b1a3f7d2}, !- Handle
  Default,                                !- Name
  ,                                       !- Multiplier
  ,                                       !- Ceiling Height {m}
  ,                                       !- Volume {m3}
  ,                                       !- Floor Area {m2}
  ,                                       !- Zone Inside Convection Algorithm
  ,                                       !- Zone Outside Convection Algorithm
  ,                                       !- Zone Conditioning Equipment List Name
  {4851644c-2948-4826-9650-4913416606d4}, !- Zone Air Inlet Port List
  {84233cae-1f71-41a3-8567-1226fd3090d7}, !- Zone Air Exhaust Port List
  {4a30454d-fc26-43f8-a75c-0da02b57deca}, !- Zone Air Node Name
  {2be8f838-cba3-4136-a282-b145d0408c49}, !- Zone Return Air Port List
  ,                                       !- Primary Daylighting Control Name
  ,                                       !- Fraction of Zone Controlled by Primary Daylighting Control
  ,                                       !- Secondary Daylighting Control Name
  ,                                       !- Fraction of Zone Controlled by Secondary Daylighting Control
  ,                                       !- Illuminance Map Name
  ,                                       !- Group Rendering Name
  ,                                       !- Thermostat Name
  No;                                     !- Use Ideal Air Loads

OS:Node,
  {466bf605-2e9d-446c-aae0-bf856467cf0e}, !- Handle
  {71b706cc-5c33-4c37-9dd0-af7adefec048}, !- Name
  {4a30454d-fc26-43f8-a75c-0da02b57deca}, !- Inlet Port
  ;                                       !- Outlet Port

OS:Connection,
  {4a30454d-fc26-43f8-a75c-0da02b57deca}, !- Handle
  {c068581a-82ba-42ed-927c-7c6022a24575}, !- Name
  {b06d197e-733a-4466-97a2-de78b1a3f7d2}, !- Source Object
  11,                                     !- Outlet Port
  {466bf605-2e9d-446c-aae0-bf856467cf0e}, !- Target Object
  2;                                      !- Inlet Port

OS:PortList,
  {4851644c-2948-4826-9650-4913416606d4}, !- Handle
  {9fdebb93-23a8-41a2-965c-cba4d372fd32}, !- Name
  {b06d197e-733a-4466-97a2-de78b1a3f7d2}; !- HVAC Component

OS:PortList,
  {84233cae-1f71-41a3-8567-1226fd3090d7}, !- Handle
  {b2db6438-f62f-4cb8-bde9-64f9d3face5a}, !- Name
  {b06d197e-733a-4466-97a2-de78b1a3f7d2}; !- HVAC Component

OS:PortList,
  {2be8f838-cba3-4136-a282-b145d0408c49}, !- Handle
  {537b0550-2829-4390-9677-2936b5abe8e4}, !- Name
  {b06d197e-733a-4466-97a2-de78b1a3f7d2}; !- HVAC Component

OS:Sizing:Zone,
  {d5c45730-b20e-4387-8c60-f8023afe5683}, !- Handle
  {b06d197e-733a-4466-97a2-de78b1a3f7d2}, !- Zone or ZoneList Name
  SupplyAirTemperature,                   !- Zone Cooling Design Supply Air Temperature Input Method
  14,                                     !- Zone Cooling Design Supply Air Temperature {C}
  11.11,                                  !- Zone Cooling Design Supply Air Temperature Difference {deltaC}
  SupplyAirTemperature,                   !- Zone Heating Design Supply Air Temperature Input Method
  40,                                     !- Zone Heating Design Supply Air Temperature {C}
  11.11,                                  !- Zone Heating Design Supply Air Temperature Difference {deltaC}
  0.0085,                                 !- Zone Cooling Design Supply Air Humidity Ratio {kg-H2O/kg-air}
  0.008,                                  !- Zone Heating Design Supply Air Humidity Ratio {kg-H2O/kg-air}
  ,                                       !- Zone Heating Sizing Factor
  ,                                       !- Zone Cooling Sizing Factor
  DesignDay,                              !- Cooling Design Air Flow Method
  ,                                       !- Cooling Design Air Flow Rate {m3/s}
  ,                                       !- Cooling Minimum Air Flow per Zone Floor Area {m3/s-m2}
  ,                                       !- Cooling Minimum Air Flow {m3/s}
  ,                                       !- Cooling Minimum Air Flow Fraction
  DesignDay,                              !- Heating Design Air Flow Method
  ,                                       !- Heating Design Air Flow Rate {m3/s}
  ,                                       !- Heating Maximum Air Flow per Zone Floor Area {m3/s-m2}
  ,                                       !- Heating Maximum Air Flow {m3/s}
  ,                                       !- Heating Maximum Air Flow Fraction
  ,                                       !- Design Zone Air Distribution Effectiveness in Cooling Mode
  ,                                       !- Design Zone Air Distribution Effectiveness in Heating Mode
  No,                                     !- Account for Dedicated Outdoor Air System
  NeutralSupplyAir,                       !- Dedicated Outdoor Air System Control Strategy
  autosize,                               !- Dedicated Outdoor Air Low Setpoint Temperature for Design {C}
  autosize;                               !- Dedicated Outdoor Air High Setpoint Temperature for Design {C}

OS:ZoneHVAC:EquipmentList,
  {d26a5a82-d16a-402a-88c5-778f5da3d439}, !- Handle
  {948cdf1e-4c7b-4078-89df-18c8280085dc}, !- Name
  {b06d197e-733a-4466-97a2-de78b1a3f7d2}; !- Thermal Zone

OS:AdditionalProperties,
  {10f18827-29df-4217-ab08-a855ca90c653}, !- Handle
  {b06d197e-733a-4466-97a2-de78b1a3f7d2}, !- Object Name
  CADObjectId,                            !- Feature Name 1
  String,                                 !- Feature Data Type 1
  293242;                                 !- Feature Value 1

OS:Facility,
  {a9b28fa6-f341-45cf-beaf-d222be32ef3f}; !- Handle

OS:Building,
  {5e9c4382-df1f-493a-9e3e-8181116bec4b}, !- Handle
  bldg-1,                                 !- Name
  ,                                       !- Building Sector Type
  ,                                       !- North Axis {deg}
  ,                                       !- Nominal Floor to Floor Height {m}
  ,                                       !- Space Type Name
  ,                                       !- Default Construction Set Name
  ;                                       !- Default Schedule Set Name

OS:BuildingStory,
  {a50aa5cf-f8e2-404c-97ab-021733cbfce7}, !- Handle
  Level 00,                               !- Name
  ,                                       !- Nominal Z Coordinate {m}
  ,                                       !- Nominal Floor to Floor Height {m}
  ,                                       !- Default Construction Set Name
  ,                                       !- Default Schedule Set Name
  ;                                       !- Group Rendering Name

OS:BuildingStory,
  {c56b71d3-5870-4631-a876-c428e47d1fc8}, !- Handle
  Level B1,                               !- Name
  ,                                       !- Nominal Z Coordinate {m}
  ,                                       !- Nominal Floor to Floor Height {m}
  ,                                       !- Default Construction Set Name
  ,                                       !- Default Schedule Set Name
  ;                                       !- Group Rendering Name

OS:BuildingStory,
  {92d73e78-4b2e-4812-85ec-a07b938b75a0}, !- Handle
  Level 01,                               !- Name
  ,                                       !- Nominal Z Coordinate {m}
  ,                                       !- Nominal Floor to Floor Height {m}
  ,                                       !- Default Construction Set Name
  ,                                       !- Default Schedule Set Name
  ;                                       !- Group Rendering Name

OS:BuildingStory,
  {bd72ce20-ef9d-400a-bb03-c11eea07891d}, !- Handle
  Level 1B,                               !- Name
  ,                                       !- Nominal Z Coordinate {m}
  ,                                       !- Nominal Floor to Floor Height {m}
  ,                                       !- Default Construction Set Name
  ,                                       !- Default Schedule Set Name
  ;                                       !- Group Rendering Name

OS:BuildingStory,
  {0921704a-a603-47a4-8498-15061a50bdb1}, !- Handle
  Level 02,                               !- Name
  ,                                       !- Nominal Z Coordinate {m}
  ,                                       !- Nominal Floor to Floor Height {m}
  ,                                       !- Default Construction Set Name
  ,                                       !- Default Schedule Set Name
  ;                                       !- Group Rendering Name

OS:BuildingStory,
  {c9870285-1fba-4974-b61d-00cd7db58dfc}, !- Handle
  Level 2B,                               !- Name
  ,                                       !- Nominal Z Coordinate {m}
  ,                                       !- Nominal Floor to Floor Height {m}
  ,                                       !- Default Construction Set Name
  ,                                       !- Default Schedule Set Name
  ;                                       !- Group Rendering Name

OS:BuildingStory,
  {277e1ffc-2c6d-4d8d-93b4-1fd54c1811f8}, !- Handle
  Level 03,                               !- Name
  ,                                       !- Nominal Z Coordinate {m}
  ,                                       !- Nominal Floor to Floor Height {m}
  ,                                       !- Default Construction Set Name
  ,                                       !- Default Schedule Set Name
  ;                                       !- Group Rendering Name

OS:BuildingStory,
  {8cfa7c54-d21c-4a4f-90df-166d370046f8}, !- Handle
  Level 3B,                               !- Name
  ,                                       !- Nominal Z Coordinate {m}
  ,                                       !- Nominal Floor to Floor Height {m}
  ,                                       !- Default Construction Set Name
  ,                                       !- Default Schedule Set Name
  ;                                       !- Group Rendering Name

OS:Space,
  {74502b84-6743-4055-ac69-ef9f977b8766}, !- Handle
  00_100 Stair Lobby,                     !- Name
  ,                                       !- Space Type Name
  ,                                       !- Default Construction Set Name
  ,                                       !- Default Schedule Set Name
  ,                                       !- Direction of Relative North {deg}
  ,                                       !- X Origin {m}
  ,                                       !- Y Origin {m}
  ,                                       !- Z Origin {m}
  {a50aa5cf-f8e2-404c-97ab-021733cbfce7}, !- Building Story Name
  {b06d197e-733a-4466-97a2-de78b1a3f7d2}; !- Thermal Zone Name

OS:AdditionalProperties,
  {9adc46a2-19a5-4269-a7a4-f6059535690f}, !- Handle
  {74502b84-6743-4055-ac69-ef9f977b8766}, !- Object Name
  CADObjectId,                            !- Feature Name 1
  String,                                 !- Feature Data Type 1
  1004914;                                !- Feature Value 1

OS:Space,
  {3ba842e2-c2a7-4e1b-b124-c618252c5ce7}, !- Handle
  00_101 Stairwell,                       !- Name
  ,                                       !- Space Type Name
  ,                                       !- Default Construction Set Name
  ,                                       !- Default Schedule Set Name
  ,                                       !- Direction of Relative North {deg}
  ,                                       !- X Origin {m}
  ,                                       !- Y Origin {m}
  ,                                       !- Z Origin {m}
  {a50aa5cf-f8e2-404c-97ab-021733cbfce7}, !- Building Story Name
  {b06d197e-733a-4466-97a2-de78b1a3f7d2}; !- Thermal Zone Name

OS:AdditionalProperties,
  {f8d377f0-d7bb-46be-b93b-d288ee58446b}, !- Handle
  {3ba842e2-c2a7-4e1b-b124-c618252c5ce7}, !- Object Name
  CADObjectId,                            !- Feature Name 1
  String,                                 !- Feature Data Type 1
  1004915;                                !- Feature Value 1

OS:Space,
  {6b274893-080e-4218-8ff2-214104b705f6}, !- Handle
  00_104 WC,                              !- Name
  ,                                       !- Space Type Name
  ,                                       !- Default Construction Set Name
  ,                                       !- Default Schedule Set Name
  ,                                       !- Direction of Relative North {deg}
  ,                                       !- X Origin {m}
  ,                                       !- Y Origin {m}
  ,                                       !- Z Origin {m}
  {a50aa5cf-f8e2-404c-97ab-021733cbfce7}, !- Building Story Name
  {b06d197e-733a-4466-97a2-de78b1a3f7d2}; !- Thermal Zone Name

OS:AdditionalProperties,
  {b5eb0819-379f-47b6-8ff2-da5f1ec913fc}, !- Handle
  {6b274893-080e-4218-8ff2-214104b705f6}, !- Object Name
  CADObjectId,                            !- Feature Name 1
  String,                                 !- Feature Data Type 1
  1004920;                                !- Feature Value 1

OS:Space,
  {d5151e14-694f-422f-90da-82fdd96b2351}, !- Handle
  00_105 Circulation,                     !- Name
  ,                                       !- Space Type Name
  ,                                       !- Default Construction Set Name
  ,                                       !- Default Schedule Set Name
  ,                                       !- Direction of Relative North {deg}
  ,                                       !- X Origin {m}
  ,                                       !- Y Origin {m}
  ,                                       !- Z Origin {m}
  {a50aa5cf-f8e2-404c-97ab-021733cbfce7}, !- Building Story Name
  {b06d197e-733a-4466-97a2-de78b1a3f7d2}; !- Thermal Zone Name

OS:AdditionalProperties,
  {ea3b764b-267a-4070-acc5-970d53c12ce7}, !- Handle
  {d5151e14-694f-422f-90da-82fdd96b2351}, !- Object Name
  CADObjectId,                            !- Feature Name 1
  String,                                 !- Feature Data Type 1
  1004921;                                !- Feature Value 1

OS:Space,
  {456ab8f0-2f62-43bd-8cbc-217bb0a3d86f}, !- Handle
  00_106 Studio 2,                        !- Name
  ,                                       !- Space Type Name
  ,                                       !- Default Construction Set Name
  ,                                       !- Default Schedule Set Name
  ,                                       !- Direction of Relative North {deg}
  ,                                       !- X Origin {m}
  ,                                       !- Y Origin {m}
  ,                                       !- Z Origin {m}
  {a50aa5cf-f8e2-404c-97ab-021733cbfce7}, !- Building Story Name
  {b06d197e-733a-4466-97a2-de78b1a3f7d2}; !- Thermal Zone Name

OS:AdditionalProperties,
  {95ec5a41-269d-4ad3-aa7f-90832f2c1c05}, !- Handle
  {456ab8f0-2f62-43bd-8cbc-217bb0a3d86f}, !- Object Name
  CADObjectId,                            !- Feature Name 1
  String,                                 !- Feature Data Type 1
  1004923;                                !- Feature Value 1

OS:Space,
  {a12b3efb-41b7-4744-aacd-17c6fb1acf91}, !- Handle
  00_107 Foyer,                           !- Name
  ,                                       !- Space Type Name
  ,                                       !- Default Construction Set Name
  ,                                       !- Default Schedule Set Name
  ,                                       !- Direction of Relative North {deg}
  ,                                       !- X Origin {m}
  ,                                       !- Y Origin {m}
  ,                                       !- Z Origin {m}
  {a50aa5cf-f8e2-404c-97ab-021733cbfce7}, !- Building Story Name
  {b06d197e-733a-4466-97a2-de78b1a3f7d2}; !- Thermal Zone Name

OS:AdditionalProperties,
  {b2aef347-b0f8-4b45-8ef1-2c4d91ebc34d}, !- Handle
  {a12b3efb-41b7-4744-aacd-17c6fb1acf91}, !- Object Name
  CADObjectId,                            !- Feature Name 1
  String,                                 !- Feature Data Type 1
  1004924;                                !- Feature Value 1

OS:Space,
  {245291bc-b7a6-4f9c-8014-3da6106eaad8}, !- Handle
  00_108 Studio 1 lower,                  !- Name
  ,                                       !- Space Type Name
  ,                                       !- Default Construction Set Name
  ,                                       !- Default Schedule Set Name
  ,                                       !- Direction of Relative North {deg}
  ,                                       !- X Origin {m}
  ,                                       !- Y Origin {m}
  ,                                       !- Z Origin {m}
  {a50aa5cf-f8e2-404c-97ab-021733cbfce7}, !- Building Story Name
  {b06d197e-733a-4466-97a2-de78b1a3f7d2}; !- Thermal Zone Name

OS:AdditionalProperties,
  {27006fb3-64e7-4cdb-bbe5-95354db5991c}, !- Handle
  {245291bc-b7a6-4f9c-8014-3da6106eaad8}, !- Object Name
  CADObjectId,                            !- Feature Name 1
  String,                                 !- Feature Data Type 1
  1004927;                                !- Feature Value 1

OS:Space,
  {0c0e6cb5-0efd-4718-ad5d-b85d8d154f0b}, !- Handle
  00_109 Studio 1 BayLower,               !- Name
  ,                                       !- Space Type Name
  ,                                       !- Default Construction Set Name
  ,                                       !- Default Schedule Set Name
  ,                                       !- Direction of Relative North {deg}
  ,                                       !- X Origin {m}
  ,                                       !- Y Origin {m}
  ,                                       !- Z Origin {m}
  {a50aa5cf-f8e2-404c-97ab-021733cbfce7}, !- Building Story Name
  {b06d197e-733a-4466-97a2-de78b1a3f7d2}; !- Thermal Zone Name

OS:AdditionalProperties,
  {ae8957db-6ed5-4d36-a1d0-242ce430c138}, !- Handle
  {0c0e6cb5-0efd-4718-ad5d-b85d8d154f0b}, !- Object Name
  CADObjectId,                            !- Feature Name 1
  String,                                 !- Feature Data Type 1
  1060058;                                !- Feature Value 1

OS:Space,
  {a5eb0f4c-cea3-4d7e-ad17-3ba3b748a107}, !- Handle
  01_100 Stairwell,                       !- Name
  ,                                       !- Space Type Name
  ,                                       !- Default Construction Set Name
  ,                                       !- Default Schedule Set Name
  ,                                       !- Direction of Relative North {deg}
  ,                                       !- X Origin {m}
  ,                                       !- Y Origin {m}
  ,                                       !- Z Origin {m}
  {92d73e78-4b2e-4812-85ec-a07b938b75a0}, !- Building Story Name
  {b06d197e-733a-4466-97a2-de78b1a3f7d2}; !- Thermal Zone Name

OS:AdditionalProperties,
  {e8b19262-f6c6-4677-ba05-2beaf24cdcc2}, !- Handle
  {a5eb0f4c-cea3-4d7e-ad17-3ba3b748a107}, !- Object Name
  CADObjectId,                            !- Feature Name 1
  String,                                 !- Feature Data Type 1
  1005282;                                !- Feature Value 1

OS:Space,
  {a408e847-512f-44cb-968c-095ac679d92a}, !- Handle
  01_101 Circulation,                     !- Name
  ,                                       !- Space Type Name
  ,                                       !- Default Construction Set Name
  ,                                       !- Default Schedule Set Name
  ,                                       !- Direction of Relative North {deg}
  ,                                       !- X Origin {m}
  ,                                       !- Y Origin {m}
  ,                                       !- Z Origin {m}
  {92d73e78-4b2e-4812-85ec-a07b938b75a0}, !- Building Story Name
  {b06d197e-733a-4466-97a2-de78b1a3f7d2}; !- Thermal Zone Name

OS:AdditionalProperties,
  {6c4e81a7-43ea-4140-991d-b28b15834869}, !- Handle
  {a408e847-512f-44cb-968c-095ac679d92a}, !- Object Name
  CADObjectId,                            !- Feature Name 1
  String,                                 !- Feature Data Type 1
  1005283;                                !- Feature Value 1

OS:Space,
  {2f65e09a-3839-4123-842c-bf91c3c77cc5}, !- Handle
  01_102 Office,                          !- Name
  ,                                       !- Space Type Name
  ,                                       !- Default Construction Set Name
  ,                                       !- Default Schedule Set Name
  ,                                       !- Direction of Relative North {deg}
  ,                                       !- X Origin {m}
  ,                                       !- Y Origin {m}
  ,                                       !- Z Origin {m}
  {92d73e78-4b2e-4812-85ec-a07b938b75a0}, !- Building Story Name
  {b06d197e-733a-4466-97a2-de78b1a3f7d2}; !- Thermal Zone Name

OS:AdditionalProperties,
  {5410c49e-3dab-40ef-8c84-c2061efa6ebd}, !- Handle
  {2f65e09a-3839-4123-842c-bf91c3c77cc5}, !- Object Name
  CADObjectId,                            !- Feature Name 1
  String,                                 !- Feature Data Type 1
  1005285;                                !- Feature Value 1

OS:Space,
  {2c634da9-190c-4c4b-b3ba-dd945d4f34c8}, !- Handle
  01_103 WC Lobby,                        !- Name
  ,                                       !- Space Type Name
  ,                                       !- Default Construction Set Name
  ,                                       !- Default Schedule Set Name
  ,                                       !- Direction of Relative North {deg}
  ,                                       !- X Origin {m}
  ,                                       !- Y Origin {m}
  ,                                       !- Z Origin {m}
  {92d73e78-4b2e-4812-85ec-a07b938b75a0}, !- Building Story Name
  {b06d197e-733a-4466-97a2-de78b1a3f7d2}; !- Thermal Zone Name

OS:AdditionalProperties,
  {98a70941-0536-4928-acd0-b91738bb3d60}, !- Handle
  {2c634da9-190c-4c4b-b3ba-dd945d4f34c8}, !- Object Name
  CADObjectId,                            !- Feature Name 1
  String,                                 !- Feature Data Type 1
  1005287;                                !- Feature Value 1

OS:Space,
  {40b4897a-fbda-42b5-a002-9633ad8c0e3f}, !- Handle
  01_104 WC,                              !- Name
  ,                                       !- Space Type Name
  ,                                       !- Default Construction Set Name
  ,                                       !- Default Schedule Set Name
  ,                                       !- Direction of Relative North {deg}
  ,                                       !- X Origin {m}
  ,                                       !- Y Origin {m}
  ,                                       !- Z Origin {m}
  {92d73e78-4b2e-4812-85ec-a07b938b75a0}, !- Building Story Name
  {b06d197e-733a-4466-97a2-de78b1a3f7d2}; !- Thermal Zone Name

OS:AdditionalProperties,
  {a8038780-6bcc-4039-8466-6c19655475cf}, !- Handle