
Version,
  9.1;                                    !- Version Identifier

Timestep,
  6;                                      !- Number of Timesteps per Hour

LifeCycleCost:Parameters,
  Life Cycle Cost Parameters,             !- Name
  EndOfYear,                              !- Discounting Convention
  ConstantDollar,                         !- Inflation Approach
  0.03,                                   !- Real Discount Rate
  ,                                       !- Nominal Discount Rate
  ,                                       !- Inflation
  ,                                       !- Base Date Month
  2011,                                   !- Base Date Year
  ,                                       !- Service Date Month
  2011,                                   !- Service Date Year
  25,                                     !- Length of Study Period in Years
  ,                                       !- Tax rate
  None;                                   !- Depreciation Method

LifeCycleCost:UsePriceEscalation,
  U.S. Avg  Commercial-Electricity,       !- LCC Price Escalation Name
  Electricity,                            !- Resource
  2011,                                   !- Escalation Start Year
  January,                                !- Escalation Start Month
  0.9838,                                 !- Year Escalation 1
  0.9730,                                 !- Year Escalation 2
  0.9632,                                 !- Year Escalation 3
  0.9611,                                 !- Year Escalation 4
  0.9571,                                 !- Year Escalation 5
  0.9553,                                 !- Year Escalation 6
  0.9539,                                 !- Year Escalation 7
  0.9521,                                 !- Year Escalation 8
  0.9546,                                 !- Year Escalation 9
  0.9550,                                 !- Year Escalation 10
  0.9553,                                 !- Year Escalation 11
  0.9564,                                 !- Year Escalation 12
  0.9575,                                 !- Year Escalation 13
  0.9596,                                 !- Year Escalation 14
  0.9618,                                 !- Year Escalation 15
  0.9614,                                 !- Year Escalation 16
  0.9618,                                 !- Year Escalation 17
  0.9618,                                 !- Year Escalation 18
  0.9593,                                 !- Year Escalation 19
  0.9589,                                 !- Year Escalation 20
  0.9607,                                 !- Year Escalation 21
  0.9625,                                 !- Year Escalation 22
  0.9650,                                 !- Year Escalation 23
  0.9708,                                 !- Year Escalation 24
  0.9751,                                 !- Year Escalation 25
  0.9762,                                 !- Year Escalation 26
  0.9766,                                 !- Year Escalation 27
  0.9766,                                 !- Year Escalation 28
  0.9769,                                 !- Year Escalation 29
  0.9773;                                 !- Year Escalation 30

LifeCycleCost:UsePriceEscalation,
  U.S. Avg  Commercial-Distillate Oil,    !- LCC Price Escalation Name
  FuelOil#1,                              !- Resource
  2011,                                   !- Escalation Start Year
  January,                                !- Escalation Start Month
  0.9714,                                 !- Year Escalation 1
  0.9730,                                 !- Year Escalation 2
  0.9942,                                 !- Year Escalation 3
  1.0164,                                 !- Year Escalation 4
  1.0541,                                 !- Year Escalation 5
  1.0928,                                 !- Year Escalation 6
  1.1267,                                 !- Year Escalation 7
  1.1580,                                 !- Year Escalation 8
  1.1792,                                 !- Year Escalation 9
  1.1967,                                 !- Year Escalation 10
  1.2200,                                 !- Year Escalation 11
  1.2333,                                 !- Year Escalation 12
  1.2566,                                 !- Year Escalation 13
  1.2709,                                 !- Year Escalation 14
  1.2826,                                 !- Year Escalation 15
  1.2985,                                 !- Year Escalation 16
  1.3102,                                 !- Year Escalation 17
  1.3250,                                 !- Year Escalation 18
  1.3261,                                 !- Year Escalation 19
  1.3282,                                 !- Year Escalation 20
  1.3324,                                 !- Year Escalation 21
  1.3356,                                 !- Year Escalation 22
  1.3431,                                 !- Year Escalation 23
  1.3510,                                 !- Year Escalation 24
  1.3568,                                 !- Year Escalation 25
  1.3606,                                 !- Year Escalation 26
  1.3637,                                 !- Year Escalation 27
  1.3674,                                 !- Year Escalation 28
  1.3706,                                 !- Year Escalation 29
  1.3743;                                 !- Year Escalation 30

LifeCycleCost:UsePriceEscalation,
  U.S. Avg  Commercial-Residual Oil,      !- LCC Price Escalation Name
  FuelOil#2,                              !- Resource
  2011,                                   !- Escalation Start Year
  January,                                !- Escalation Start Month
  0.8469,                                 !- Year Escalation 1
  0.8257,                                 !- Year Escalation 2
  0.8681,                                 !- Year Escalation 3
  0.8988,                                 !- Year Escalation 4
  0.9289,                                 !- Year Escalation 5
  0.9604,                                 !- Year Escalation 6
  0.9897,                                 !- Year Escalation 7
  1.0075,                                 !- Year Escalation 8
  1.0314,                                 !- Year Escalation 9
  1.0554,                                 !- Year Escalation 10
  1.0861,                                 !- Year Escalation 11
  1.1278,                                 !- Year Escalation 12
  1.1497,                                 !- Year Escalation 13
  1.1620,                                 !- Year Escalation 14
  1.1743,                                 !- Year Escalation 15
  1.1852,                                 !- Year Escalation 16
  1.1948,                                 !- Year Escalation 17
  1.2037,                                 !- Year Escalation 18
  1.2071,                                 !- Year Escalation 19
  1.2119,                                 !- Year Escalation 20
  1.2139,                                 !- Year Escalation 21
  1.2194,                                 !- Year Escalation 22
  1.2276,                                 !- Year Escalation 23
  1.2365,                                 !- Year Escalation 24
  1.2420,                                 !- Year Escalation 25
  1.2461,                                 !- Year Escalation 26
  1.2509,                                 !- Year Escalation 27
  1.2550,                                 !- Year Escalation 28
  1.2591,                                 !- Year Escalation 29
  1.2638;                                 !- Year Escalation 30

LifeCycleCost:UsePriceEscalation,
  U.S. Avg  Commercial-Natural gas,       !- LCC Price Escalation Name
  NaturalGas,                             !- Resource
  2011,                                   !- Escalation Start Year
  January,                                !- Escalation Start Month
  0.9823,                                 !- Year Escalation 1
  0.9557,                                 !- Year Escalation 2
  0.9279,                                 !- Year Escalation 3
  0.9257,                                 !- Year Escalation 4
  0.9346,                                 !- Year Escalation 5
  0.9412,                                 !- Year Escalation 6
  0.9512,                                 !- Year Escalation 7
  0.9645,                                 !- Year Escalation 8
  0.9856,                                 !- Year Escalation 9
  1.0067,                                 !- Year Escalation 10
  1.0222,                                 !- Year Escalation 11
  1.0410,                                 !- Year Escalation 12
  1.0610,                                 !- Year Escalation 13
  1.0787,                                 !- Year Escalation 14
  1.0942,                                 !- Year Escalation 15
  1.1098,                                 !- Year Escalation 16
  1.1220,                                 !- Year Escalation 17
  1.1308,                                 !- Year Escalation 18
  1.1386,                                 !- Year Escalation 19
  1.1486,                                 !- Year Escalation 20
  1.1619,                                 !- Year Escalation 21
  1.1763,                                 !- Year Escalation 22
  1.1918,                                 !- Year Escalation 23
  1.2118,                                 !- Year Escalation 24
  1.2284,                                 !- Year Escalation 25
  1.2439,                                 !- Year Escalation 26
  1.2605,                                 !- Year Escalation 27
  1.2772,                                 !- Year Escalation 28
  1.2938,                                 !- Year Escalation 29
  1.3115;                                 !- Year Escalation 30

LifeCycleCost:UsePriceEscalation,
  U.S. Avg  Commercial-Coal,              !- LCC Price Escalation Name
  Coal,                                   !- Resource
  2011,                                   !- Escalation Start Year
  January,                                !- Escalation Start Month
  0.9970,                                 !- Year Escalation 1
  1.0089,                                 !- Year Escalation 2
  1.0089,                                 !- Year Escalation 3
  0.9941,                                 !- Year Escalation 4
  0.9941,                                 !- Year Escalation 5
  1.0000,                                 !- Year Escalation 6
  1.0030,                                 !- Year Escalation 7
  1.0059,                                 !- Year Escalation 8
  1.0089,                                 !- Year Escalation 9
  1.0119,                                 !- Year Escalation 10
  1.0148,                                 !- Year Escalation 11
  1.0178,                                 !- Year Escalation 12
  1.0208,                                 !- Year Escalation 13
  1.0267,                                 !- Year Escalation 14
  1.0297,                                 !- Year Escalation 15
  1.0356,                                 !- Year Escalation 16
  1.0415,                                 !- Year Escalation 17
  1.0534,                                 !- Year Escalation 18
  1.0564,                                 !- Year Escalation 19
  1.0593,                                 !- Year Escalation 20
  1.0653,                                 !- Year Escalation 21
  1.0712,                                 !- Year Escalation 22
  1.0742,                                 !- Year Escalation 23
  1.0801,                                 !- Year Escalation 24
  1.0831,                                 !- Year Escalation 25
  1.0831,                                 !- Year Escalation 26
  1.0861,                                 !- Year Escalation 27
  1.0890,                                 !- Year Escalation 28
  1.0920,                                 !- Year Escalation 29
  1.0950;                                 !- Year Escalation 30

Building,
  bldg-1,                                 !- Name
  ,                                       !- North Axis {deg}
  ,                                       !- Terrain
  ,                                       !- Loads Convergence Tolerance Value
  ,                                       !- Temperature Convergence Tolerance Value {deltaC}
  ,                                       !- Solar Distribution
  ,                                       !- Maximum Number of Warmup Days
  ;                                       !- Minimum Number of Warmup Days

Shading:Building:Detailed,
  X-S-452,                                !- Name
  ,                                       !- Transmittance Schedule Name
  ,                                       !- Number of Vertices
  -113.1334, 51.53293, 6.9,               !- X,Y,Z Vertex 1 {m}
  -112.3916, 51.23325, 6.9,               !- X,Y,Z Vertex 2 {m}
  -112.3916, 51.23325, 7.070258,          !- X,Y,Z Vertex 3 {m}
  -113.1334, 51.53293, 7.070258;          !- X,Y,Z Vertex 4 {m}

Shading:Building:Detailed,
  X-S-453,                                !- Name
  ,                                       !- Transmittance Schedule Name
  ,                                       !- Number of Vertices
  -111.1105, 56.53973, 6.9,               !- X,Y,Z Vertex 1 {m}
  -111.1105, 56.53973, 7.070258,          !- X,Y,Z Vertex 2 {m}
  -110.3687, 56.24004, 7.070258,          !- X,Y,Z Vertex 3 {m}
  -110.3687, 56.24004, 6.9;               !- X,Y,Z Vertex 4 {m}

Shading:Building:Detailed,
  X-S-454,                                !- Name
  ,                                       !- Transmittance Schedule Name
  ,                                       !- Number of Vertices
  -144.2447, 47.64997, 6.9,               !- X,Y,Z Vertex 1 {m}
  -144.2447, 47.64997, 9.497118,          !- X,Y,Z Vertex 2 {m}
  -140.6207, 57.05702, 9.497118,          !- X,Y,Z Vertex 3 {m}
  -140.6207, 57.05702, 6.9;               !- X,Y,Z Vertex 4 {m}

Shading:Building:Detailed,
  X-S-455,                                !- Name
  ,                                       !- Transmittance Schedule Name
  ,                                       !- Number of Vertices
  -140.6207, 57.05702, 6.9,               !- X,Y,Z Vertex 1 {m}
  -140.6207, 57.05702, 9.497118,          !- X,Y,Z Vertex 2 {m}
  -139.0945, 62.02192, 9.497118,          !- X,Y,Z Vertex 3 {m}
  -139.0945, 62.02192, 6.9;               !- X,Y,Z Vertex 4 {m}

Shading:Building:Detailed,
  X-S-456,                                !- Name
  ,                                       !- Transmittance Schedule Name
  ,                                       !- Number of Vertices
  -144.2447, 47.64997, 6.9,               !- X,Y,Z Vertex 1 {m}
  -129.84, 42.02488, 6.9,                 !- X,Y,Z Vertex 2 {m}
  -129.84, 42.02488, 9.497118,            !- X,Y,Z Vertex 3 {m}
  -144.2447, 47.64997, 9.497118;          !- X,Y,Z Vertex 4 {m}

Shading:Building:Detailed,
  X-S-457,                                !- Name
  ,                                       !- Transmittance Schedule Name
  ,                                       !- Number of Vertices
  -129.84, 42.02488, 6.9,                 !- X,Y,Z Vertex 1 {m}
  -128.7153, 44.6703, 6.9,                !- X,Y,Z Vertex 2 {m}
  -128.7153, 44.6703, 9.497118,           !- X,Y,Z Vertex 3 {m}
  -129.84, 42.02488, 9.497118;            !- X,Y,Z Vertex 4 {m}

Shading:Building:Detailed,
  X-S-458,                                !- Name
  ,                                       !- Transmittance Schedule Name
  ,                                       !- Number of Vertices
  -114.9877, 52.28215, 15.9324,           !- X,Y,Z Vertex 1 {m}
  -114.9784, 52.30532, 15.9324,           !- X,Y,Z Vertex 2 {m}
  -114.9784, 52.30532, 17.41,             !- X,Y,Z Vertex 3 {m}
  -114.9877, 52.28215, 17.41;             !- X,Y,Z Vertex 4 {m}

Shading:Building:Detailed,
  X-S-459,                                !- Name
  ,                                       !- Transmittance Schedule Name
  ,                                       !- Number of Vertices
  -114.9877, 52.28215, 6.9,               !- X,Y,Z Vertex 1 {m}
  -113.1334, 51.53293, 6.9,               !- X,Y,Z Vertex 2 {m}
  -113.1334, 51.53293, 10.75564,          !- X,Y,Z Vertex 3 {m}
  -113.7592, 51.78577, 10.75564,          !- X,Y,Z Vertex 4 {m}
  -113.7592, 51.78577, 10.92,             !- X,Y,Z Vertex 5 {m}
  -114.9877, 52.28215, 10.92;             !- X,Y,Z Vertex 6 {m}

Shading:Building:Detailed,
  X-S-460,                                !- Name
  ,                                       !- Transmittance Schedule Name
  ,                                       !- Number of Vertices
  -114.5532, 53.35768, 6.9,               !- X,Y,Z Vertex 1 {m}
  -114.5532, 53.35768, 10.92,             !- X,Y,Z Vertex 2 {m}
  -113.3246, 52.86131, 10.92,             !- X,Y,Z Vertex 3 {m}
  -113.3246, 52.86131, 10.75564,          !- X,Y,Z Vertex 4 {m}
  -112.6988, 52.60846, 10.75564,          !- X,Y,Z Vertex 5 {m}
  -112.6988, 52.60846, 6.9;               !- X,Y,Z Vertex 6 {m}

Shading:Building:Detailed,
  X-S-461,                                !- Name
  ,                                       !- Transmittance Schedule Name
  ,                                       !- Number of Vertices
  -113.3994, 56.21341, 6.9,               !- X,Y,Z Vertex 1 {m}
  -111.545, 55.46419, 6.9,                !- X,Y,Z Vertex 2 {m}
  -111.545, 55.46419, 10.76303,           !- X,Y,Z Vertex 3 {m}
  -112.1708, 55.71703, 10.76303,          !- X,Y,Z Vertex 4 {m}
  -112.1708, 55.71703, 10.92,             !- X,Y,Z Vertex 5 {m}
  -113.3994, 56.21341, 10.92;             !- X,Y,Z Vertex 6 {m}

Shading:Building:Detailed,
  X-S-462,                                !- Name
  ,                                       !- Transmittance Schedule Name
  ,                                       !- Number of Vertices
  -112.9649, 57.28894, 6.9,               !- X,Y,Z Vertex 1 {m}
  -112.9649, 57.28894, 10.92,             !- X,Y,Z Vertex 2 {m}
  -111.7363, 56.79256, 10.92,             !- X,Y,Z Vertex 3 {m}
  -111.7363, 56.79256, 10.75564,          !- X,Y,Z Vertex 4 {m}
  -111.1105, 56.53973, 10.75564,          !- X,Y,Z Vertex 5 {m}
  -111.1105, 56.53973, 6.9;               !- X,Y,Z Vertex 6 {m}

Shading:Building:Detailed,
  X-S-463,                                !- Name
  ,                                       !- Transmittance Schedule Name
  ,                                       !- Number of Vertices
  -128.7153, 44.6703, 6.9,                !- X,Y,Z Vertex 1 {m}
  -128.4821, 44.57609, 6.9,               !- X,Y,Z Vertex 2 {m}
  -128.4821, 44.57609, 9.497118,          !- X,Y,Z Vertex 3 {m}
  -128.7153, 44.6703, 9.497118;           !- X,Y,Z Vertex 4 {m}

Shading:Building:Detailed,
  X-S-464,                                !- Name
  ,                                       !- Transmittance Schedule Name
  ,                                       !- Number of Vertices
  -112.9649, 57.28894, 10.92,             !- X,Y,Z Vertex 1 {m}
  -112.9649, 57.28894, 14.34,             !- X,Y,Z Vertex 2 {m}
  -111.741, 56.79446, 14.34,              !- X,Y,Z Vertex 3 {m}
  -111.741, 56.79446, 10.92;              !- X,Y,Z Vertex 4 {m}

Shading:Building:Detailed,
  X-S-465,                                !- Name
  ,                                       !- Transmittance Schedule Name
  ,                                       !- Number of Vertices
  -113.3994, 56.21341, 10.92,             !- X,Y,Z Vertex 1 {m}
  -112.1708, 55.71703, 10.92,             !- X,Y,Z Vertex 2 {m}
  -112.1708, 55.71703, 14.34,             !- X,Y,Z Vertex 3 {m}
  -113.3994, 56.21341, 14.34;             !- X,Y,Z Vertex 4 {m}

Shading:Building:Detailed,
  X-S-466,                                !- Name
  ,                                       !- Transmittance Schedule Name
  ,                                       !- Number of Vertices
  -114.5532, 53.35768, 10.92,             !- X,Y,Z Vertex 1 {m}
  -114.5532, 53.35768, 14.34,             !- X,Y,Z Vertex 2 {m}
  -113.3246, 52.86131, 14.34,             !- X,Y,Z Vertex 3 {m}
  -113.3246, 52.86131, 10.92;             !- X,Y,Z Vertex 4 {m}

Shading:Building:Detailed,
  X-S-467,                                !- Name
  ,                                       !- Transmittance Schedule Name
  ,                                       !- Number of Vertices
  -114.9877, 52.28215, 10.92,             !- X,Y,Z Vertex 1 {m}
  -113.7592, 51.78577, 10.92,             !- X,Y,Z Vertex 2 {m}
  -113.7592, 51.78577, 14.34,             !- X,Y,Z Vertex 3 {m}
  -114.9877, 52.28215, 14.34;             !- X,Y,Z Vertex 4 {m}

Shading:Building:Detailed,
  X-S-468,                                !- Name
  ,                                       !- Transmittance Schedule Name
  ,                                       !- Number of Vertices
  -128.4589, 44.56673, 15.9324,           !- X,Y,Z Vertex 1 {m}
  -124.0084, 42.76861, 18.29111,          !- X,Y,Z Vertex 2 {m}
  -119.5579, 40.9705, 15.9324,            !- X,Y,Z Vertex 3 {m}
  -119.5579, 40.9705, 17.09384,           !- X,Y,Z Vertex 4 {m}
  -121.0852, 41.58756, 17.09384,          !- X,Y,Z Vertex 5 {m}
  -121.0852, 41.58756, 18.6,              !- X,Y,Z Vertex 6 {m}
  -126.9079, 43.94009, 18.6,              !- X,Y,Z Vertex 7 {m}
  -126.9079, 43.94009, 17.09384,          !- X,Y,Z Vertex 8 {m}
  -128.4589, 44.56673, 17.09384;          !- X,Y,Z Vertex 9 {m}

Shading:Building:Detailed,
  X-S-469,                                !- Name
  ,                                       !- Transmittance Schedule Name
  ,                                       !- Number of Vertices
  -128.4589, 44.56673, 15.9324,           !- X,Y,Z Vertex 1 {m}
  -128.4589, 44.56673, 17.09384,          !- X,Y,Z Vertex 2 {m}
  -126.7857, 48.70809, 17.09384,          !- X,Y,Z Vertex 3 {m}
  -126.7857, 48.70809, 19.66326,          !- X,Y,Z Vertex 4 {m}
  -126.7315, 48.84225, 19.66326,          !- X,Y,Z Vertex 5 {m}
  -126.7315, 48.84225, 21.0643,           !- X,Y,Z Vertex 6 {m}
  -126.3394, 49.81257, 21.0643,           !- X,Y,Z Vertex 7 {m}
  -126.3394, 49.81257, 19.82156,          !- X,Y,Z Vertex 8 {m}
  -126.039, 50.55607, 19.82156,           !- X,Y,Z Vertex 9 {m}
  -126.039, 50.55607, 21.0643,            !- X,Y,Z Vertex 10 {m}
  -125.647, 51.52639, 21.0643,            !- X,Y,Z Vertex 11 {m}
  -125.647, 51.52639, 19.66326,           !- X,Y,Z Vertex 12 {m}
  -125.6019, 51.63799, 19.66326,          !- X,Y,Z Vertex 13 {m}
  -125.6019, 51.63799, 17.09384,          !- X,Y,Z Vertex 14 {m}
  -123.8887, 55.87837, 17.09384,          !- X,Y,Z Vertex 15 {m}
  -123.8887, 55.87837, 15.9324;           !- X,Y,Z Vertex 16 {m}

Shading:Building:Detailed,
  X-S-470,                                !- Name
  ,                                       !- Transmittance Schedule Name
  ,                                       !- Number of Vertices
  -119.5579, 40.9705, 15.9324,            !- X,Y,Z Vertex 1 {m}
  -114.9877, 52.28215, 15.9324,           !- X,Y,Z Vertex 2 {m}
  -114.9877, 52.28215, 17.09384,          !- X,Y,Z Vertex 3 {m}
  -119.5579, 40.9705, 17.09384;           !- X,Y,Z Vertex 4 {m}

Shading:Building:Detailed,
  X-S-471,                                !- Name
  ,                                       !- Transmittance Schedule Name
  ,                                       !- Number of Vertices
  -110.0944, 69.28731, 16.84512,          !- X,Y,Z Vertex 1 {m}
  -110.0944, 69.28731, 17.09384,          !- X,Y,Z Vertex 2 {m}
  -108.3947, 68.60058, 17.09384,          !- X,Y,Z Vertex 3 {m}
  -108.3947, 68.60058, 15.93328;          !- X,Y,Z Vertex 4 {m}

Shading:Building:Detailed,
  X-S-472,                                !- Name
  ,                                       !- Transmittance Schedule Name
  ,                                       !- Number of Vertices
  -121.8658, 60.88516, 15.93328,          !- X,Y,Z Vertex 1 {m}
  -121.8658, 60.88516, 15.94579,          !- X,Y,Z Vertex 2 {m}
  -121.8565, 60.90834, 15.94579,          !- X,Y,Z Vertex 3 {m}
  -121.8565, 60.90834, 17.09384,          !- X,Y,Z Vertex 4 {m}
  -120.1692, 65.08453, 17.09384,          !- X,Y,Z Vertex 5 {m}
  -120.1692, 65.08453, 19.74329,          !- X,Y,Z Vertex 6 {m}
  -120.1285, 65.18513, 19.74329,          !- X,Y,Z Vertex 7 {m}
  -120.1285, 65.18513, 21.11167,          !- X,Y,Z Vertex 8 {m}
  -119.7312, 66.16856, 21.11167,          !- X,Y,Z Vertex 9 {m}
  -119.7312, 66.16856, 19.84329,          !- X,Y,Z Vertex 10 {m}
  -119.3736, 67.05364, 19.84329,          !- X,Y,Z Vertex 11 {m}
  -119.3736, 67.05364, 21.11167,          !- X,Y,Z Vertex 12 {m}
  -118.9816, 68.02396, 21.11167,          !- X,Y,Z Vertex 13 {m}
  -118.9816, 68.02396, 19.74329,          !- X,Y,Z Vertex 14 {m}
  -118.9667, 68.06079, 19.74329,          !- X,Y,Z Vertex 15 {m}
  -118.9667, 68.06079, 17.09384,          !- X,Y,Z Vertex 16 {m}
  -117.2956, 72.1968, 17.09384,           !- X,Y,Z Vertex 17 {m}
  -117.2956, 72.1968, 15.93328;           !- X,Y,Z Vertex 18 {m}

Shading:Building:Detailed,
  X-S-473,                                !- Name
  ,                                       !- Transmittance Schedule Name
  ,                                       !- Number of Vertices
  -112.9649, 57.28894, 15.94579,          !- X,Y,Z Vertex 1 {m}
  -112.9555, 57.31212, 15.94579,          !- X,Y,Z Vertex 2 {m}
  -112.9555, 57.31212, 15.93328,          !- X,Y,Z Vertex 3 {m}
  -108.3947, 68.60058, 15.93328,          !- X,Y,Z Vertex 4 {m}
  -108.3947, 68.60058, 17.09384,          !- X,Y,Z Vertex 5 {m}
  -112.9649, 57.28894, 17.09384;          !- X,Y,Z Vertex 6 {m}

Shading:Building:Detailed,
  X-S-474,                                !- Name
  ,                                       !- Transmittance Schedule Name
  ,                                       !- Number of Vertices
  -123.9119, 55.88773, 15.92011,          !- X,Y,Z Vertex 1 {m}
  -123.8655, 55.869, 15.94468,            !- X,Y,Z Vertex 2 {m}
  -123.8655, 55.869, 17.46,               !- X,Y,Z Vertex 3 {m}
  -123.9119, 55.88773, 17.46;             !- X,Y,Z Vertex 4 {m}

Shading:Building:Detailed,
  X-S-475,                                !- Name
  ,                                       !- Transmittance Schedule Name
  ,                                       !- Number of Vertices
  -123.9119, 55.88773, 17.73704,          !- X,Y,Z Vertex 1 {m}
  -123.8655, 55.869, 17.73704,            !- X,Y,Z Vertex 2 {m}
  -123.8655, 55.869, 17.94,               !- X,Y,Z Vertex 3 {m}
  -123.9119, 55.88773, 17.94;             !- X,Y,Z Vertex 4 {m}

Shading:Building:Detailed,
  X-S-476,                                !- Name
  ,                                       !- Transmittance Schedule Name
  ,                                       !- Number of Vertices
  -121.889, 60.89453, 17.73801,           !- X,Y,Z Vertex 1 {m}
  -121.889, 60.89453, 17.94,              !- X,Y,Z Vertex 2 {m}
  -121.8658, 60.88516, 17.94,             !- X,Y,Z Vertex 3 {m}
  -121.8658, 60.88516, 17.73801;          !- X,Y,Z Vertex 4 {m}

Shading:Building:Detailed,
  X-S-477,                                !- Name
  ,                                       !- Transmittance Schedule Name
  ,                                       !- Number of Vertices
  -117.2956, 72.1968, 15.93824,           !- X,Y,Z Vertex 1 {m}
  -117.2956, 72.1968, 17.09384,           !- X,Y,Z Vertex 2 {m}
  -115.6099, 71.51575, 17.09384,          !- X,Y,Z Vertex 3 {m}
  -115.6099, 71.51575, 16.84328;          !- X,Y,Z Vertex 4 {m}

Shading:Building:Detailed,
  X-S-478,                                !- Name
  ,                                       !- Transmittance Schedule Name
  ,                                       !- Number of Vertices
  -115.6086, 71.51521, 16.84349,          !- X,Y,Z Vertex 1 {m}
  -115.6086, 71.51521, 18.655,            !- X,Y,Z Vertex 2 {m}
  -110.0944, 69.28731, 18.655,            !- X,Y,Z Vertex 3 {m}
  -110.0944, 69.28731, 16.85027,          !- X,Y,Z Vertex 4 {m}
  -112.8451, 70.39869, 18.32084;          !- X,Y,Z Vertex 5 {m}

Shading:Building:Detailed,
  X-S-479,                                !- Name
  ,                                       !- Transmittance Schedule Name
  ,                                       !- Number of Vertices
  -112.9649, 57.28894, 14.34,             !- X,Y,Z Vertex 1 {m}
  -112.9649, 57.28894, 17.46,             !- X,Y,Z Vertex 2 {m}
  -111.9495, 56.87872, 17.46,             !- X,Y,Z Vertex 3 {m}
  -111.9495, 56.87872, 14.34;             !- X,Y,Z Vertex 4 {m}

Shading:Building:Detailed,
  X-S-480,                                !- Name
  ,                                       !- Transmittance Schedule Name
  ,                                       !- Number of Vertices
  -113.3994, 56.21341, 14.34,             !- X,Y,Z Vertex 1 {m}
  -112.1708, 55.71703, 14.34,             !- X,Y,Z Vertex 2 {m}
  -112.1708, 55.71703, 17.41,             !- X,Y,Z Vertex 3 {m}
  -113.3994, 56.21341, 17.41;             !- X,Y,Z Vertex 4 {m}

Shading:Building:Detailed,
  X-S-481,                                !- Name
  ,                                       !- Transmittance Schedule Name
  ,                                       !- Number of Vertices
  -114.5532, 53.35768, 14.34,             !- X,Y,Z Vertex 1 {m}
  -114.5532, 53.35768, 17.41,             !- X,Y,Z Vertex 2 {m}
  -113.3246, 52.86131, 17.41,             !- X,Y,Z Vertex 3 {m}
  -113.3246, 52.86131, 14.34;             !- X,Y,Z Vertex 4 {m}

Shading:Building:Detailed,
  X-S-482,                                !- Name
  ,                                       !- Transmittance Schedule Name
  ,                                       !- Number of Vertices
  -114.9877, 52.28215, 15.92011,          !- X,Y,Z Vertex 1 {m}
  -114.9645, 52.27278, 15.92011,          !- X,Y,Z Vertex 2 {m}
  -114.9645, 52.27278, 14.34,             !- X,Y,Z Vertex 3 {m}
  -113.9724, 51.87193, 14.34,             !- X,Y,Z Vertex 4 {m}
  -113.9724, 51.87193, 17.23009,          !- X,Y,Z Vertex 5 {m}