
Version,
  9.1;                                    !- Version Identifier

Timestep,
  6;                                      !- Number of Timesteps per Hour

LifeCycleCost:Parameters,
  Life Cycle Cost Parameters,             !- Name
  EndOfYear,                              !- Discounting Convention
  ConstantDollar,                         !- Inflation Approach
  0.03,                                   !- Real Discount Rate
  ,                                       !- Nominal Discount Rate
  ,                                       !- Inflation
  ,                                       !- Base Date Month
  2011,                                   !- Base Date Year
  ,                                       !- Service Date Month
  2011,                                   !- Service Date Year
  25,                                     !- Length of Study Period in Years
  ,                                       !- Tax rate
  None;                                   !- Depreciation Method

LifeCycleCost:UsePriceEscalation,
  U.S. Avg  Commercial-Electricity,       !- LCC Price Escalation Name
  Electricity,                            !- Resource
  2011,                                   !- Escalation Start Year
  January,                                !- Escalation Start Month
  0.9838,                                 !- Year Escalation 1
  0.9730,                                 !- Year Escalation 2
  0.9632,                                 !- Year Escalation 3
  0.9611,                                 !- Year Escalation 4
  0.9571,                                 !- Year Escalation 5
  0.9553,                                 !- Year Escalation 6
  0.9539,                                 !- Year Escalation 7
  0.9521,                                 !- Year Escalation 8
  0.9546,                                 !- Year Escalation 9
  0.9550,                                 !- Year Escalation 10
  0.9553,                                 !- Year Escalation 11
  0.9564,                                 !- Year Escalation 12
  0.9575,                                 !- Year Escalation 13
  0.9596,                                 !- Year Escalation 14
  0.9618,                                 !- Year Escalation 15
  0.9614,                                 !- Year Escalation 16
  0.9618,                                 !- Year Escalation 17
  0.9618,                                 !- Year Escalation 18
  0.9593,                                 !- Year Escalation 19
  0.9589,                                 !- Year Escalation 20
  0.9607,                                 !- Year Escalation 21
  0.9625,                                 !- Year Escalation 22
  0.9650,                                 !- Year Escalation 23
  0.9708,                                 !- Year Escalation 24
  0.9751,                                 !- Year Escalation 25
  0.9762,                                 !- Year Escalation 26
  0.9766,                                 !- Year Escalation 27
  0.9766,                                 !- Year Escalation 28
  0.9769,                                 !- Year Escalation 29
  0.9773;                                 !- Year Escalation 30

LifeCycleCost:UsePriceEscalation,
  U.S. Avg  Commercial-Distillate Oil,    !- LCC Price Escalation Name
  FuelOil#1,                              !- Resource
  2011,                                   !- Escalation Start Year
  January,                                !- Escalation Start Month
  0.9714,                                 !- Year Escalation 1
  0.9730,                                 !- Year Escalation 2
  0.9942,                                 !- Year Escalation 3
  1.0164,                                 !- Year Escalation 4
  1.0541,                                 !- Year Escalation 5
  1.0928,                                 !- Year Escalation 6
  1.1267,                                 !- Year Escalation 7
  1.1580,                                 !- Year Escalation 8
  1.1792,                                 !- Year Escalation 9
  1.1967,                                 !- Year Escalation 10
  1.2200,                                 !- Year Escalation 11
  1.2333,                                 !- Year Escalation 12
  1.2566,                                 !- Year Escalation 13
  1.2709,                                 !- Year Escalation 14
  1.2826,                                 !- Year Escalation 15
  1.2985,                                 !- Year Escalation 16
  1.3102,                                 !- Year Escalation 17
  1.3250,                                 !- Year Escalation 18
  1.3261,                                 !- Year Escalation 19
  1.3282,                                 !- Year Escalation 20
  1.3324,                                 !- Year Escalation 21
  1.3356,                                 !- Year Escalation 22
  1.3431,                                 !- Year Escalation 23
  1.3510,                                 !- Year Escalation 24
  1.3568,                                 !- Year Escalation 25
  1.3606,                                 !- Year Escalation 26
  1.3637,                                 !- Year Escalation 27
  1.3674,                                 !- Year Escalation 28
  1.3706,                                 !- Year Escalation 29
  1.3743;                                 !- Year Escalation 30

LifeCycleCost:UsePriceEscalation,
  U.S. Avg  Commercial-Residual Oil,      !- LCC Price Escalation Name
  FuelOil#2,                              !- Resource
  2011,                                   !- Escalation Start Year
  January,                                !- Escalation Start Month
  0.8469,                                 !- Year Escalation 1
  0.8257,                                 !- Year Escalation 2
  0.8681,                                 !- Year Escalation 3
  0.8988,                                 !- Year Escalation 4
  0.9289,                                 !- Year Escalation 5
  0.9604,                                 !- Year Escalation 6
  0.9897,                                 !- Year Escalation 7
  1.0075,                                 !- Year Escalation 8
  1.0314,                                 !- Year Escalation 9
  1.0554,                                 !- Year Escalation 10
  1.0861,                                 !- Year Escalation 11
  1.1278,                                 !- Year Escalation 12
  1.1497,                                 !- Year Escalation 13
  1.1620,                                 !- Year Escalation 14
  1.1743,                                 !- Year Escalation 15
  1.1852,                                 !- Year Escalation 16
  1.1948,                                 !- Year Escalation 17
  1.2037,                                 !- Year Escalation 18
  1.2071,                                 !- Year Escalation 19
  1.2119,                                 !- Year Escalation 20
  1.2139,                                 !- Year Escalation 21
  1.2194,                                 !- Year Escalation 22
  1.2276,                                 !- Year Escalation 23
  1.2365,                                 !- Year Escalation 24
  1.2420,                                 !- Year Escalation 25
  1.2461,                                 !- Year Escalation 26
  1.2509,                                 !- Year Escalation 27
  1.2550,                                 !- Year Escalation 28
  1.2591,                                 !- Year Escalation 29
  1.2638;                                 !- Year Escalation 30

LifeCycleCost:UsePriceEscalation,
  U.S. Avg  Commercial-Natural gas,       !- LCC Price Escalation Name
  NaturalGas,                             !- Resource
  2011,                                   !- Escalation Start Year
  January,                                !- Escalation Start Month
  0.9823,                                 !- Year Escalation 1
  0.9557,                                 !- Year Escalation 2
  0.9279,                                 !- Year Escalation 3
  0.9257,                                 !- Year Escalation 4
  0.9346,                                 !- Year Escalation 5
  0.9412,                                 !- Year Escalation 6
  0.9512,                                 !- Year Escalation 7
  0.9645,                                 !- Year Escalation 8
  0.9856,                                 !- Year Escalation 9
  1.0067,                                 !- Year Escalation 10
  1.0222,                                 !- Year Escalation 11
  1.0410,                                 !- Year Escalation 12
  1.0610,                                 !- Year Escalation 13
  1.0787,                                 !- Year Escalation 14
  1.0942,                                 !- Year Escalation 15
  1.1098,                                 !- Year Escalation 16
  1.1220,                                 !- Year Escalation 17
  1.1308,                                 !- Year Escalation 18
  1.1386,                                 !- Year Escalation 19
  1.1486,                                 !- Year Escalation 20
  1.1619,                                 !- Year Escalation 21
  1.1763,                                 !- Year Escalation 22
  1.1918,                                 !- Year Escalation 23
  1.2118,                                 !- Year Escalation 24
  1.2284,                                 !- Year Escalation 25
  1.2439,                                 !- Year Escalation 26
  1.2605,                                 !- Year Escalation 27
  1.2772,                                 !- Year Escalation 28
  1.2938,                                 !- Year Escalation 29
  1.3115;                                 !- Year Escalation 30

LifeCycleCost:UsePriceEscalation,
  U.S. Avg  Commercial-Coal,              !- LCC Price Escalation Name
  Coal,                                   !- Resource
  2011,                                   !- Escalation Start Year
  January,                                !- Escalation Start Month
  0.9970,                                 !- Year Escalation 1
  1.0089,                                 !- Year Escalation 2
  1.0089,                                 !- Year Escalation 3
  0.9941,                                 !- Year Escalation 4
  0.9941,                                 !- Year Escalation 5
  1.0000,                                 !- Year Escalation 6
  1.0030,                                 !- Year Escalation 7
  1.0059,                                 !- Year Escalation 8
  1.0089,                                 !- Year Escalation 9
  1.0119,                                 !- Year Escalation 10
  1.0148,                                 !- Year Escalation 11
  1.0178,                                 !- Year Escalation 12
  1.0208,                                 !- Year Escalation 13
  1.0267,                                 !- Year Escalation 14
  1.0297,                                 !- Year Escalation 15
  1.0356,                                 !- Year Escalation 16
  1.0415,                                 !- Year Escalation 17
  1.0534,                                 !- Year Escalation 18
  1.0564,                                 !- Year Escalation 19
  1.0593,                                 !- Year Escalation 20
  1.0653,                                 !- Year Escalation 21
  1.0712,                                 !- Year Escalation 22
  1.0742,                                 !- Year Escalation 23
  1.0801,                                 !- Year Escalation 24
  1.0831,                                 !- Year Escalation 25
  1.0831,                                 !- Year Escalation 26
  1.0861,                                 !- Year Escalation 27
  1.0890,                                 !- Year Escalation 28
  1.0920,                                 !- Year Escalation 29
  1.0950;                                 !- Year Escalation 30

Building,
  bldg-1,                                 !- Name
  ,                                       !- North Axis {deg}
  ,                                       !- Terrain
  ,                                       !- Loads Convergence Tolerance Value
  ,                                       !- Temperature Convergence Tolerance Value {deltaC}
  ,                                       !- Solar Distribution
  ,                                       !- Maximum Number of Warmup Days
  ;                                       !- Minimum Number of Warmup Days

Shading:Building:Detailed,
  X-S-499,                                !- Name
  ,                                       !- Transmittance Schedule Name
  ,                                       !- Number of Vertices
  472.402, 980.9779, 19.25,               !- X,Y,Z Vertex 1 {m}
  501.8319, 979.2106, 19.25,              !- X,Y,Z Vertex 2 {m}
  501.8319, 979.2106, 23.15,              !- X,Y,Z Vertex 3 {m}
  472.402, 980.9779, 23.15;               !- X,Y,Z Vertex 4 {m}

Shading:Building:Detailed,
  X-S-500,                                !- Name
  ,                                       !- Transmittance Schedule Name
  ,                                       !- Number of Vertices
  472.1396, 991.2037, 19.25,              !- X,Y,Z Vertex 1 {m}
  472.402, 980.9779, 19.25,               !- X,Y,Z Vertex 2 {m}
  472.402, 980.9779, 23.15,               !- X,Y,Z Vertex 3 {m}
  472.1396, 991.2037, 23.15;              !- X,Y,Z Vertex 4 {m}

Shading:Building:Detailed,
  X-S-501,                                !- Name
  ,                                       !- Transmittance Schedule Name
  ,                                       !- Number of Vertices
  472.1396, 991.2037, 19.25,              !- X,Y,Z Vertex 1 {m}
  472.1396, 991.2037, 23.15,              !- X,Y,Z Vertex 2 {m}
  474.4124, 993.4094, 23.15,              !- X,Y,Z Vertex 3 {m}
  474.4124, 993.4094, 19.25;              !- X,Y,Z Vertex 4 {m}

Shading:Building:Detailed,
  X-S-502,                                !- Name
  ,                                       !- Transmittance Schedule Name
  ,                                       !- Number of Vertices
  517.559, 983.7762, 19.25,               !- X,Y,Z Vertex 1 {m}
  518.0055, 991.2125, 19.25,              !- X,Y,Z Vertex 2 {m}
  518.0055, 991.2125, 23.15,              !- X,Y,Z Vertex 3 {m}
  517.559, 983.7762, 23.15;               !- X,Y,Z Vertex 4 {m}

Shading:Building:Detailed,
  X-S-503,                                !- Name
  ,                                       !- Transmittance Schedule Name
  ,                                       !- Number of Vertices
  502.1616, 984.7007, 19.25,              !- X,Y,Z Vertex 1 {m}
  517.559, 983.7762, 19.25,               !- X,Y,Z Vertex 2 {m}
  517.559, 983.7762, 23.15,               !- X,Y,Z Vertex 3 {m}
  502.1616, 984.7007, 23.15;              !- X,Y,Z Vertex 4 {m}

Shading:Building:Detailed,
  X-S-504,                                !- Name
  ,                                       !- Transmittance Schedule Name
  ,                                       !- Number of Vertices
  501.8319, 979.2106, 19.25,              !- X,Y,Z Vertex 1 {m}
  502.1616, 984.7007, 19.25,              !- X,Y,Z Vertex 2 {m}
  502.1616, 984.7007, 23.15,              !- X,Y,Z Vertex 3 {m}
  501.8319, 979.2106, 23.15;              !- X,Y,Z Vertex 4 {m}

Shading:Building:Detailed,
  X-S-505,                                !- Name
  ,                                       !- Transmittance Schedule Name
  ,                                       !- Number of Vertices
  472.1143, 991.214, 23.15,               !- X,Y,Z Vertex 1 {m}
  472.3776, 980.9543, 23.15,              !- X,Y,Z Vertex 2 {m}
  501.8554, 979.1842, 23.15,              !- X,Y,Z Vertex 3 {m}
  502.185, 984.6743, 23.15,               !- X,Y,Z Vertex 4 {m}
  517.5824, 983.7497, 23.15,              !- X,Y,Z Vertex 5 {m}
  518.0319, 991.2362, 23.15,              !- X,Y,Z Vertex 6 {m}
  501.6324, 992.0627, 23.15,              !- X,Y,Z Vertex 7 {m}
  501.2931, 984.6899, 23.15,              !- X,Y,Z Vertex 8 {m}
  489.8122, 985.2184, 23.15,              !- X,Y,Z Vertex 9 {m}
  490.1539, 992.6411, 23.15,              !- X,Y,Z Vertex 10 {m}
  474.4028, 993.4349, 23.15;              !- X,Y,Z Vertex 11 {m}

Shading:Building:Detailed,
  X-S-506,                                !- Name
  ,                                       !- Transmittance Schedule Name
  ,                                       !- Number of Vertices
  489.8383, 985.2422, 23.15,              !- X,Y,Z Vertex 1 {m}
  501.2692, 984.7161, 23.15,              !- X,Y,Z Vertex 2 {m}
  501.2692, 984.7161, 31.608,             !- X,Y,Z Vertex 3 {m}
  499.2963, 984.8068, 31.608,             !- X,Y,Z Vertex 4 {m}
  499.2963, 984.8068, 33.178,             !- X,Y,Z Vertex 5 {m}
  495.5538, 984.9791, 34.628,             !- X,Y,Z Vertex 6 {m}
  491.8112, 985.1514, 33.16826,           !- X,Y,Z Vertex 7 {m}
  491.8112, 985.1514, 31.608,             !- X,Y,Z Vertex 8 {m}
  489.8383, 985.2422, 31.608;             !- X,Y,Z Vertex 9 {m}

Shading:Building:Detailed,
  X-S-507,                                !- Name
  ,                                       !- Transmittance Schedule Name
  ,                                       !- Number of Vertices
  489.8383, 985.2422, 23.15,              !- X,Y,Z Vertex 1 {m}
  489.8383, 985.2422, 31.608,             !- X,Y,Z Vertex 2 {m}
  490.1808, 992.6836, 31.608,             !- X,Y,Z Vertex 3 {m}
  490.1808, 992.6836, 23.15;              !- X,Y,Z Vertex 4 {m}

Shading:Building:Detailed,
  X-S-508,                                !- Name
  ,                                       !- Transmittance Schedule Name
  ,                                       !- Number of Vertices
  490.1808, 992.6836, 23.15,              !- X,Y,Z Vertex 1 {m}
  490.1808, 992.6836, 31.608,             !- X,Y,Z Vertex 2 {m}
  492.1538, 992.5928, 31.608,             !- X,Y,Z Vertex 3 {m}
  492.1538, 992.5928, 33.178,             !- X,Y,Z Vertex 4 {m}
  495.8963, 992.4205, 34.628,             !- X,Y,Z Vertex 5 {m}
  499.6389, 992.2482, 33.16826,           !- X,Y,Z Vertex 6 {m}
  499.6389, 992.2482, 31.608,             !- X,Y,Z Vertex 7 {m}
  501.6118, 992.1574, 31.608,             !- X,Y,Z Vertex 8 {m}
  501.6118, 992.1574, 23.15;              !- X,Y,Z Vertex 9 {m}

Shading:Building:Detailed,
  X-S-509,                                !- Name
  ,                                       !- Transmittance Schedule Name
  ,                                       !- Number of Vertices
  501.2692, 984.7161, 23.15,              !- X,Y,Z Vertex 1 {m}
  501.6118, 992.1574, 23.15,              !- X,Y,Z Vertex 2 {m}
  501.6118, 992.1574, 31.608,             !- X,Y,Z Vertex 3 {m}
  501.2692, 984.7161, 31.608;             !- X,Y,Z Vertex 4 {m}

Shading:Building:Detailed,
  X-S-510,                                !- Name
  ,                                       !- Transmittance Schedule Name
  ,                                       !- Number of Vertices
  491.8362, 985.1502, 31.608,             !- X,Y,Z Vertex 1 {m}
  491.8362, 985.1502, 33.16826,           !- X,Y,Z Vertex 2 {m}
  491.8374, 985.1752, 33.16826,           !- X,Y,Z Vertex 3 {m}
  491.8374, 985.1752, 33.178,             !- X,Y,Z Vertex 4 {m}
  492.1787, 992.5916, 33.178,             !- X,Y,Z Vertex 5 {m}
  492.1787, 992.5916, 31.608;             !- X,Y,Z Vertex 6 {m}

Shading:Building:Detailed,
  X-S-511,                                !- Name
  ,                                       !- Transmittance Schedule Name
  ,                                       !- Number of Vertices
  499.2713, 984.808, 31.608,              !- X,Y,Z Vertex 1 {m}
  499.6139, 992.2494, 31.608,             !- X,Y,Z Vertex 2 {m}
  499.6139, 992.2494, 33.16826,           !- X,Y,Z Vertex 3 {m}
  499.6127, 992.2244, 33.16826,           !- X,Y,Z Vertex 4 {m}
  499.6127, 992.2244, 33.178,             !- X,Y,Z Vertex 5 {m}
  499.2713, 984.808, 33.178;              !- X,Y,Z Vertex 6 {m}

Shading:Building:Detailed,
  X-S-512,                                !- Name
  ,                                       !- Transmittance Schedule Name
  ,                                       !- Number of Vertices
  499.2952, 984.7819, 31.608,             !- X,Y,Z Vertex 1 {m}
  501.2931, 984.6899, 31.608,             !- X,Y,Z Vertex 2 {m}
  501.6379, 992.1813, 31.608,             !- X,Y,Z Vertex 3 {m}
  499.64, 992.2732, 31.608;               !- X,Y,Z Vertex 4 {m}

Shading:Building:Detailed,
  X-S-513,                                !- Name
  ,                                       !- Transmittance Schedule Name
  ,                                       !- Number of Vertices
  489.8122, 985.2184, 31.608,             !- X,Y,Z Vertex 1 {m}
  491.8101, 985.1264, 31.608,             !- X,Y,Z Vertex 2 {m}
  492.1549, 992.6177, 31.608,             !- X,Y,Z Vertex 3 {m}
  490.157, 992.7097, 31.608;              !- X,Y,Z Vertex 4 {m}

Shading:Building:Detailed,
  X-S-514,                                !- Name
  ,                                       !- Transmittance Schedule Name
  ,                                       !- Number of Vertices
  491.8101, 985.1264, 33.178,             !- X,Y,Z Vertex 1 {m}
  495.5526, 984.9542, 34.628,             !- X,Y,Z Vertex 2 {m}
  495.8975, 992.4455, 34.628,             !- X,Y,Z Vertex 3 {m}
  492.1549, 992.6177, 33.178;             !- X,Y,Z Vertex 4 {m}

Shading:Building:Detailed,
  X-S-515,                                !- Name
  ,                                       !- Transmittance Schedule Name
  ,                                       !- Number of Vertices
  495.5526, 984.9542, 34.628,             !- X,Y,Z Vertex 1 {m}
  499.2952, 984.7819, 33.178,             !- X,Y,Z Vertex 2 {m}
  499.64, 992.2732, 33.178,               !- X,Y,Z Vertex 3 {m}
  495.8975, 992.4455, 34.628;             !- X,Y,Z Vertex 4 {m}

Shading:Building:Detailed,
  X-S-516,                                !- Name
  ,                                       !- Transmittance Schedule Name
  ,                                       !- Number of Vertices
  474.4124, 993.4094, 19.25,              !- X,Y,Z Vertex 1 {m}
  474.4124, 993.4094, 23.15,              !- X,Y,Z Vertex 2 {m}
  518.0055, 991.2125, 23.15,              !- X,Y,Z Vertex 3 {m}
  518.0055, 991.2125, 19.25;              !- X,Y,Z Vertex 4 {m}

Shading:Building:Detailed,
  X-S-517,                                !- Name
  ,                                       !- Transmittance Schedule Name
  ,                                       !- Number of Vertices
  513.9111, 1000.454, 19.25,              !- X,Y,Z Vertex 1 {m}
  518.7773, 1000.162, 19.25,              !- X,Y,Z Vertex 2 {m}
  518.7773, 1000.162, 30.05,              !- X,Y,Z Vertex 3 {m}
  513.9111, 1000.454, 30.05;              !- X,Y,Z Vertex 4 {m}

Shading:Building:Detailed,
  X-S-518,                                !- Name
  ,                                       !- Transmittance Schedule Name
  ,                                       !- Number of Vertices
  509.0448, 1000.747, 19.25,              !- X,Y,Z Vertex 1 {m}
  513.9111, 1000.454, 19.25,              !- X,Y,Z Vertex 2 {m}
  513.9111, 1000.454, 30.05,              !- X,Y,Z Vertex 3 {m}
  509.0448, 1000.747, 30.05;              !- X,Y,Z Vertex 4 {m}

Shading:Building:Detailed,
  X-S-519,                                !- Name
  ,                                       !- Transmittance Schedule Name
  ,                                       !- Number of Vertices
  518.7773, 1000.162, 19.25,              !- X,Y,Z Vertex 1 {m}
  518.9196, 1002.533, 19.25,              !- X,Y,Z Vertex 2 {m}
  518.9196, 1002.533, 30.05,              !- X,Y,Z Vertex 3 {m}
  518.7773, 1000.162, 30.05;              !- X,Y,Z Vertex 4 {m}

Shading:Building:Detailed,
  X-S-520,                                !- Name
  ,                                       !- Transmittance Schedule Name
  ,                                       !- Number of Vertices
  518.9196, 1002.533, 19.25,              !- X,Y,Z Vertex 1 {m}
  519.1534, 1006.426, 19.25,              !- X,Y,Z Vertex 2 {m}
  519.1534, 1006.426, 30.05,              !- X,Y,Z Vertex 3 {m}
  518.9196, 1002.533, 30.05;              !- X,Y,Z Vertex 4 {m}

Shading:Building:Detailed,
  X-S-521,                                !- Name
  ,                                       !- Transmittance Schedule Name
  ,                                       !- Number of Vertices
  519.1534, 1006.426, 19.25,              !- X,Y,Z Vertex 1 {m}
  519.2958, 1008.797, 19.25,              !- X,Y,Z Vertex 2 {m}
  519.2958, 1008.797, 30.05,              !- X,Y,Z Vertex 3 {m}
  519.1534, 1006.426, 30.05;              !- X,Y,Z Vertex 4 {m}

Shading:Building:Detailed,
  X-S-522,                                !- Name
  ,                                       !- Transmittance Schedule Name
  ,                                       !- Number of Vertices
  514.4295, 1009.089, 19.25,              !- X,Y,Z Vertex 1 {m}
  514.4295, 1009.089, 30.05,              !- X,Y,Z Vertex 2 {m}
  519.2958, 1008.797, 30.05,              !- X,Y,Z Vertex 3 {m}
  519.2958, 1008.797, 19.25;              !- X,Y,Z Vertex 4 {m}

Shading:Building:Detailed,
  X-S-523,                                !- Name
  ,                                       !- Transmittance Schedule Name
  ,                                       !- Number of Vertices
  517.9981, 1008.875, 19.25,              !- X,Y,Z Vertex 1 {m}
  518.4034, 1015.623, 19.25,              !- X,Y,Z Vertex 2 {m}
  518.4034, 1015.623, 23.58732,           !- X,Y,Z Vertex 3 {m}
  517.9981, 1008.875, 23.58732;           !- X,Y,Z Vertex 4 {m}

Shading:Building:Detailed,
  X-S-524,                                !- Name
  ,                                       !- Transmittance Schedule Name
  ,                                       !- Number of Vertices
  518.4034, 1015.623, 19.25,              !- X,Y,Z Vertex 1 {m}
  519.7709, 1038.398, 19.25,              !- X,Y,Z Vertex 2 {m}
  519.7709, 1038.398, 29.48283,           !- X,Y,Z Vertex 3 {m}
  518.4034, 1015.623, 29.48283;           !- X,Y,Z Vertex 4 {m}

Shading:Building:Detailed,
  X-S-525,                                !- Name
  ,                                       !- Transmittance Schedule Name
  ,                                       !- Number of Vertices
  509.9701, 1016.155, 23.58732,           !- X,Y,Z Vertex 1 {m}
  518.4048, 1015.648, 23.58732,           !- X,Y,Z Vertex 2 {m}
  518.4048, 1015.648, 29.48283,           !- X,Y,Z Vertex 3 {m}
  518.3799, 1015.65, 29.48283,            !- X,Y,Z Vertex 4 {m}
  518.3799, 1015.65, 29.55764,            !- X,Y,Z Vertex 5 {m}
  517.5848, 1015.698, 31.94118,           !- X,Y,Z Vertex 6 {m}
  515.4391, 1015.826, 32.98926,           !- X,Y,Z Vertex 7 {m}
  509.9701, 1016.155, 29.55;              !- X,Y,Z Vertex 8 {m}

Shading:Building:Detailed,
  X-S-526,                                !- Name
  ,                                       !- Transmittance Schedule Name
  ,                                       !- Number of Vertices
  509.0448, 1000.747, 19.25,              !- X,Y,Z Vertex 1 {m}
  509.0448, 1000.747, 30.05,              !- X,Y,Z Vertex 2 {m}
  509.1872, 1003.117, 30.05,              !- X,Y,Z Vertex 3 {m}
  509.1872, 1003.117, 19.25;              !- X,Y,Z Vertex 4 {m}

Shading:Building:Detailed,
  X-S-527,                                !- Name
  ,                                       !- Transmittance Schedule Name
  ,                                       !- Number of Vertices
  509.1872, 1003.117, 19.25,              !- X,Y,Z Vertex 1 {m}
  509.1872, 1003.117, 30.05,              !- X,Y,Z Vertex 2 {m}
  509.4209, 1007.01, 30.05,               !- X,Y,Z Vertex 3 {m}
  509.4209, 1007.01, 19.25;               !- X,Y,Z Vertex 4 {m}

Shading:Building:Detailed,
  X-S-528,                                !- Name
  ,                                       !- Transmittance Schedule Name
  ,                                       !- Number of Vertices
  509.4209, 1007.01, 19.25,               !- X,Y,Z Vertex 1 {m}
  509.4209, 1007.01, 30.05,               !- X,Y,Z Vertex 2 {m}
  509.5648, 1009.406, 30.05,              !- X,Y,Z Vertex 3 {m}
  509.5648, 1009.406, 23.58732,           !- X,Y,Z Vertex 4 {m}
  509.5633, 1009.381, 23.58732,           !- X,Y,Z Vertex 5 {m}
  509.5633, 1009.381, 19.25;              !- X,Y,Z Vertex 6 {m}

Shading:Building:Detailed,
  X-S-529,                                !- Name
  ,                                       !- Transmittance Schedule Name
  ,                                       !- Number of Vertices
  509.5633, 1009.381, 19.25,              !- X,Y,Z Vertex 1 {m}
  509.5633, 1009.381, 30.05,              !- X,Y,Z Vertex 2 {m}
  514.4295, 1009.089, 30.05,              !- X,Y,Z Vertex 3 {m}
  514.4295, 1009.089, 19.25;              !- X,Y,Z Vertex 4 {m}

Shading:Building:Detailed,
  X-S-530,                                !- Name
  ,                                       !- Transmittance Schedule Name
  ,                                       !- Number of Vertices
  509.5633, 1009.381, 19.25,              !- X,Y,Z Vertex 1 {m}
  509.5633, 1009.381, 23.58732,           !- X,Y,Z Vertex 2 {m}
  509.9701, 1016.155, 23.58732,           !- X,Y,Z Vertex 3 {m}
  509.9701, 1016.155, 19.25;              !- X,Y,Z Vertex 4 {m}

Shading:Building:Detailed,
  X-S-531,                                !- Name
  ,                                       !- Transmittance Schedule Name
  ,                                       !- Number of Vertices
  509.9701, 1016.155, 23.58732,           !- X,Y,Z Vertex 1 {m}
  509.9701, 1016.155, 29.53431,           !- X,Y,Z Vertex 2 {m}
  509.9716, 1016.18, 29.53431,            !- X,Y,Z Vertex 3 {m}
  509.9716, 1016.18, 29.55,               !- X,Y,Z Vertex 4 {m}
  511.3362, 1038.904, 29.55,              !- X,Y,Z Vertex 5 {m}
  511.3362, 1038.904, 19.25,              !- X,Y,Z Vertex 6 {m}