
Version,
  9.1;                                    !- Version Identifier

Timestep,
  6;                                      !- Number of Timesteps per Hour

LifeCycleCost:Parameters,
  Life Cycle Cost Parameters,             !- Name
  EndOfYear,                              !- Discounting Convention
  ConstantDollar,                         !- Inflation Approach
  0.03,                                   !- Real Discount Rate
  ,                                       !- Nominal Discount Rate
  ,                                       !- Inflation
  ,                                       !- Base Date Month
  2011,                                   !- Base Date Year
  ,                                       !- Service Date Month
  2011,                                   !- Service Date Year
  25,                                     !- Length of Study Period in Years
  ,                                       !- Tax rate
  None;                                   !- Depreciation Method

LifeCycleCost:UsePriceEscalation,
  U.S. Avg  Commercial-Electricity,       !- LCC Price Escalation Name
  Electricity,                            !- Resource
  2011,                                   !- Escalation Start Year
  January,                                !- Escalation Start Month
  0.9838,                                 !- Year Escalation 1
  0.9730,                                 !- Year Escalation 2
  0.9632,                                 !- Year Escalation 3
  0.9611,                                 !- Year Escalation 4
  0.9571,                                 !- Year Escalation 5
  0.9553,                                 !- Year Escalation 6
  0.9539,                                 !- Year Escalation 7
  0.9521,                                 !- Year Escalation 8
  0.9546,                                 !- Year Escalation 9
  0.9550,                                 !- Year Escalation 10
  0.9553,                                 !- Year Escalation 11
  0.9564,                                 !- Year Escalation 12
  0.9575,                                 !- Year Escalation 13
  0.9596,                                 !- Year Escalation 14
  0.9618,                                 !- Year Escalation 15
  0.9614,                                 !- Year Escalation 16
  0.9618,                                 !- Year Escalation 17
  0.9618,                                 !- Year Escalation 18
  0.9593,                                 !- Year Escalation 19
  0.9589,                                 !- Year Escalation 20
  0.9607,                                 !- Year Escalation 21
  0.9625,                                 !- Year Escalation 22
  0.9650,                                 !- Year Escalation 23
  0.9708,                                 !- Year Escalation 24
  0.9751,                                 !- Year Escalation 25
  0.9762,                                 !- Year Escalation 26
  0.9766,                                 !- Year Escalation 27
  0.9766,                                 !- Year Escalation 28
  0.9769,                                 !- Year Escalation 29
  0.9773;                                 !- Year Escalation 30

LifeCycleCost:UsePriceEscalation,
  U.S. Avg  Commercial-Distillate Oil,    !- LCC Price Escalation Name
  FuelOil#1,                              !- Resource
  2011,                                   !- Escalation Start Year
  January,                                !- Escalation Start Month
  0.9714,                                 !- Year Escalation 1
  0.9730,                                 !- Year Escalation 2
  0.9942,                                 !- Year Escalation 3
  1.0164,                                 !- Year Escalation 4
  1.0541,                                 !- Year Escalation 5
  1.0928,                                 !- Year Escalation 6
  1.1267,                                 !- Year Escalation 7
  1.1580,                                 !- Year Escalation 8
  1.1792,                                 !- Year Escalation 9
  1.1967,                                 !- Year Escalation 10
  1.2200,                                 !- Year Escalation 11
  1.2333,                                 !- Year Escalation 12
  1.2566,                                 !- Year Escalation 13
  1.2709,                                 !- Year Escalation 14
  1.2826,                                 !- Year Escalation 15
  1.2985,                                 !- Year Escalation 16
  1.3102,                                 !- Year Escalation 17
  1.3250,                                 !- Year Escalation 18
  1.3261,                                 !- Year Escalation 19
  1.3282,                                 !- Year Escalation 20
  1.3324,                                 !- Year Escalation 21
  1.3356,                                 !- Year Escalation 22
  1.3431,                                 !- Year Escalation 23
  1.3510,                                 !- Year Escalation 24
  1.3568,                                 !- Year Escalation 25
  1.3606,                                 !- Year Escalation 26
  1.3637,                                 !- Year Escalation 27
  1.3674,                                 !- Year Escalation 28
  1.3706,                                 !- Year Escalation 29
  1.3743;                                 !- Year Escalation 30

LifeCycleCost:UsePriceEscalation,
  U.S. Avg  Commercial-Residual Oil,      !- LCC Price Escalation Name
  FuelOil#2,                              !- Resource
  2011,                                   !- Escalation Start Year
  January,                                !- Escalation Start Month
  0.8469,                                 !- Year Escalation 1
  0.8257,                                 !- Year Escalation 2
  0.8681,                                 !- Year Escalation 3
  0.8988,                                 !- Year Escalation 4
  0.9289,                                 !- Year Escalation 5
  0.9604,                                 !- Year Escalation 6
  0.9897,                                 !- Year Escalation 7
  1.0075,                                 !- Year Escalation 8
  1.0314,                                 !- Year Escalation 9
  1.0554,                                 !- Year Escalation 10
  1.0861,                                 !- Year Escalation 11
  1.1278,                                 !- Year Escalation 12
  1.1497,                                 !- Year Escalation 13
  1.1620,                                 !- Year Escalation 14
  1.1743,                                 !- Year Escalation 15
  1.1852,                                 !- Year Escalation 16
  1.1948,                                 !- Year Escalation 17
  1.2037,                                 !- Year Escalation 18
  1.2071,                                 !- Year Escalation 19
  1.2119,                                 !- Year Escalation 20
  1.2139,                                 !- Year Escalation 21
  1.2194,                                 !- Year Escalation 22
  1.2276,                                 !- Year Escalation 23
  1.2365,                                 !- Year Escalation 24
  1.2420,                                 !- Year Escalation 25
  1.2461,                                 !- Year Escalation 26
  1.2509,                                 !- Year Escalation 27
  1.2550,                                 !- Year Escalation 28
  1.2591,                                 !- Year Escalation 29
  1.2638;                                 !- Year Escalation 30

LifeCycleCost:UsePriceEscalation,
  U.S. Avg  Commercial-Natural gas,       !- LCC Price Escalation Name
  NaturalGas,                             !- Resource
  2011,                                   !- Escalation Start Year
  January,                                !- Escalation Start Month
  0.9823,                                 !- Year Escalation 1
  0.9557,                                 !- Year Escalation 2
  0.9279,                                 !- Year Escalation 3
  0.9257,                                 !- Year Escalation 4
  0.9346,                                 !- Year Escalation 5
  0.9412,                                 !- Year Escalation 6
  0.9512,                                 !- Year Escalation 7
  0.9645,                                 !- Year Escalation 8
  0.9856,                                 !- Year Escalation 9
  1.0067,                                 !- Year Escalation 10
  1.0222,                                 !- Year Escalation 11
  1.0410,                                 !- Year Escalation 12
  1.0610,                                 !- Year Escalation 13
  1.0787,                                 !- Year Escalation 14
  1.0942,                                 !- Year Escalation 15
  1.1098,                                 !- Year Escalation 16
  1.1220,                                 !- Year Escalation 17
  1.1308,                                 !- Year Escalation 18
  1.1386,                                 !- Year Escalation 19
  1.1486,                                 !- Year Escalation 20
  1.1619,                                 !- Year Escalation 21
  1.1763,                                 !- Year Escalation 22
  1.1918,                                 !- Year Escalation 23
  1.2118,                                 !- Year Escalation 24
  1.2284,                                 !- Year Escalation 25
  1.2439,                                 !- Year Escalation 26
  1.2605,                                 !- Year Escalation 27
  1.2772,                                 !- Year Escalation 28
  1.2938,                                 !- Year Escalation 29
  1.3115;                                 !- Year Escalation 30

LifeCycleCost:UsePriceEscalation,
  U.S. Avg  Commercial-Coal,              !- LCC Price Escalation Name
  Coal,                                   !- Resource
  2011,                                   !- Escalation Start Year
  January,                                !- Escalation Start Month
  0.9970,                                 !- Year Escalation 1
  1.0089,                                 !- Year Escalation 2
  1.0089,                                 !- Year Escalation 3
  0.9941,                                 !- Year Escalation 4
  0.9941,                                 !- Year Escalation 5
  1.0000,                                 !- Year Escalation 6
  1.0030,                                 !- Year Escalation 7
  1.0059,                                 !- Year Escalation 8
  1.0089,                                 !- Year Escalation 9
  1.0119,                                 !- Year Escalation 10
  1.0148,                                 !- Year Escalation 11
  1.0178,                                 !- Year Escalation 12
  1.0208,                                 !- Year Escalation 13
  1.0267,                                 !- Year Escalation 14
  1.0297,                                 !- Year Escalation 15
  1.0356,                                 !- Year Escalation 16
  1.0415,                                 !- Year Escalation 17
  1.0534,                                 !- Year Escalation 18
  1.0564,                                 !- Year Escalation 19
  1.0593,                                 !- Year Escalation 20
  1.0653,                                 !- Year Escalation 21
  1.0712,                                 !- Year Escalation 22
  1.0742,                                 !- Year Escalation 23
  1.0801,                                 !- Year Escalation 24
  1.0831,                                 !- Year Escalation 25
  1.0831,                                 !- Year Escalation 26
  1.0861,                                 !- Year Escalation 27
  1.0890,                                 !- Year Escalation 28
  1.0920,                                 !- Year Escalation 29
  1.0950;                                 !- Year Escalation 30

Building,
  bldg-1,                                 !- Name
  ,                                       !- North Axis {deg}
  ,                                       !- Terrain
  ,                                       !- Loads Convergence Tolerance Value
  ,                                       !- Temperature Convergence Tolerance Value {deltaC}
  ,                                       !- Solar Distribution
  ,                                       !- Maximum Number of Warmup Days
  ;                                       !- Minimum Number of Warmup Days

Shading:Building:Detailed,
  X-S-1454,                               !- Name
  ,                                       !- Transmittance Schedule Name
  ,                                       !- Number of Vertices
  -122.9231, 45.83213, 12.25587,          !- X,Y,Z Vertex 1 {m}
  -122.8982, 45.83013, 12.27745,          !- X,Y,Z Vertex 2 {m}
  -122.8982, 45.83013, 15.2,              !- X,Y,Z Vertex 3 {m}
  -122.9231, 45.83213, 15.2;              !- X,Y,Z Vertex 4 {m}

Shading:Building:Detailed,
  X-S-1455,                               !- Name
  ,                                       !- Transmittance Schedule Name
  ,                                       !- Number of Vertices
  -76, 116.8, 15.22217,                   !- X,Y,Z Vertex 1 {m}
  -76, 116.8, 17.8,                       !- X,Y,Z Vertex 2 {m}
  -76, 116.825, 17.8,                     !- X,Y,Z Vertex 3 {m}
  -76, 116.825, 15.20774;                 !- X,Y,Z Vertex 4 {m}

Shading:Building:Detailed,
  X-S-1456,                               !- Name
  ,                                       !- Transmittance Schedule Name
  ,                                       !- Number of Vertices
  -67.025, 117.6, 15.20321,               !- X,Y,Z Vertex 1 {m}
  -67.025, 117.6, 17.8,                   !- X,Y,Z Vertex 2 {m}
  -67, 117.6, 17.8,                       !- X,Y,Z Vertex 3 {m}
  -67, 117.6, 15.21764;                   !- X,Y,Z Vertex 4 {m}

Shading:Building:Detailed,
  X-S-1460,                               !- Name
  ,                                       !- Transmittance Schedule Name
  ,                                       !- Number of Vertices
  -99.94955, 61.15263, 14.30902,          !- X,Y,Z Vertex 1 {m}
  -99.93549, 61.15263, 14.30902,          !- X,Y,Z Vertex 2 {m}
  -99.94955, 62.76905, 15.11493;          !- X,Y,Z Vertex 3 {m}

Shading:Building:Detailed,
  X-S-1461,                               !- Name
  ,                                       !- Transmittance Schedule Name
  ,                                       !- Number of Vertices
  -85.83151, 61.15263, 14.30902,          !- X,Y,Z Vertex 1 {m}
  -85.81745, 61.15263, 14.30902,          !- X,Y,Z Vertex 2 {m}
  -85.81745, 62.76905, 15.11493;          !- X,Y,Z Vertex 3 {m}

Shading:Building:Detailed,
  X-S-1462,                               !- Name
  ,                                       !- Transmittance Schedule Name
  ,                                       !- Number of Vertices
  -121.9898, 57.05966, 12.26833,          !- X,Y,Z Vertex 1 {m}
  -67.4, 57.05966, 12.26833,              !- X,Y,Z Vertex 2 {m}
  -67.4, 57.09836, 12.28763,              !- X,Y,Z Vertex 3 {m}
  -67.42113, 57.13494, 12.30587,          !- X,Y,Z Vertex 4 {m}
  -121.9625, 57.13494, 12.30587,          !- X,Y,Z Vertex 5 {m}
  -121.9867, 57.09836, 12.28763;          !- X,Y,Z Vertex 6 {m}

Shading:Building:Detailed,
  X-S-1463,                               !- Name
  ,                                       !- Transmittance Schedule Name
  ,                                       !- Number of Vertices
  -121.2979, 65.61279, 12.28763,          !- X,Y,Z Vertex 1 {m}
  -121.2266, 65.57663, 12.35154,          !- X,Y,Z Vertex 2 {m}
  -99.94955, 65.57663, 12.35154,          !- X,Y,Z Vertex 3 {m}
  -99.94955, 64.01318, 15.11493,          !- X,Y,Z Vertex 4 {m}
  -99.89983, 65.625, 12.26605,            !- X,Y,Z Vertex 5 {m}
  -121.297, 65.625, 12.26605;             !- X,Y,Z Vertex 6 {m}

Shading:Building:Detailed,
  X-S-1464,                               !- Name
  ,                                       !- Transmittance Schedule Name
  ,                                       !- Number of Vertices
  -85.86717, 65.625, 12.26605,            !- X,Y,Z Vertex 1 {m}
  -85.81745, 64.01318, 15.11493,          !- X,Y,Z Vertex 2 {m}
  -85.81745, 65.57663, 12.35154,          !- X,Y,Z Vertex 3 {m}
  -67.47404, 65.57663, 12.35154,          !- X,Y,Z Vertex 4 {m}
  -67.4, 65.61279, 12.28763,              !- X,Y,Z Vertex 5 {m}
  -67.4, 65.625, 12.26605;                !- X,Y,Z Vertex 6 {m}

Shading:Building:Detailed,
  X-S-1465,                               !- Name
  ,                                       !- Transmittance Schedule Name
  ,                                       !- Number of Vertices
  -99.9021, 61.15263, 12.39619,           !- X,Y,Z Vertex 1 {m}
  -85.86491, 61.15263, 12.39619,          !- X,Y,Z Vertex 2 {m}
  -85.86717, 61.2, 12.26605,              !- X,Y,Z Vertex 3 {m}
  -99.89983, 61.2, 12.26605;              !- X,Y,Z Vertex 4 {m}

Shading:Building:Detailed,
  X-S-1468,                               !- Name
  ,                                       !- Transmittance Schedule Name
  ,                                       !- Number of Vertices
  -122.6746, 48.59466, 12.26833,          !- X,Y,Z Vertex 1 {m}
  -67.4, 48.59466, 12.26833,              !- X,Y,Z Vertex 2 {m}
  -67.4, 48.63336, 12.28763,              !- X,Y,Z Vertex 3 {m}
  -67.42113, 48.66994, 12.30587,          !- X,Y,Z Vertex 4 {m}
  -122.6473, 48.66994, 12.30587,          !- X,Y,Z Vertex 5 {m}
  -122.6714, 48.63336, 12.28763;          !- X,Y,Z Vertex 6 {m}

Shading:Building:Detailed,
  X-S-1469,                               !- Name
  ,                                       !- Transmittance Schedule Name
  ,                                       !- Number of Vertices
  -123.3807, 40.175, 12.25587,            !- X,Y,Z Vertex 1 {m}
  -67.375, 40.175, 12.25587,              !- X,Y,Z Vertex 2 {m}
  -67.44472, 40.2957, 12.31605,           !- X,Y,Z Vertex 3 {m}
  -67.44472, 40.27528, 12.30587,          !- X,Y,Z Vertex 4 {m}
  -123.3027, 40.27528, 12.30587,          !- X,Y,Z Vertex 5 {m}
  -123.301, 40.2957, 12.31605;            !- X,Y,Z Vertex 6 {m}

Shading:Building:Detailed,
  X-S-1470,                               !- Name
  ,                                       !- Transmittance Schedule Name
  ,                                       !- Number of Vertices
  -67.44472, 40.2957, 12.31605,           !- X,Y,Z Vertex 1 {m}
  -67.375, 40.175, 12.25587,              !- X,Y,Z Vertex 2 {m}
  -67.375, 45.6, 12.25587,                !- X,Y,Z Vertex 3 {m}
  -67.44472, 45.6, 12.31605;              !- X,Y,Z Vertex 4 {m}

Shading:Building:Detailed,
  X-S-1471,                               !- Name
  ,                                       !- Transmittance Schedule Name
  ,                                       !- Number of Vertices
  -123.3807, 40.175, 12.25587,            !- X,Y,Z Vertex 1 {m}
  -123.301, 40.2957, 12.31605,            !- X,Y,Z Vertex 2 {m}
  -122.8536, 45.82653, 12.31605,          !- X,Y,Z Vertex 3 {m}
  -122.8982, 45.83013, 12.27745,          !- X,Y,Z Vertex 4 {m}
  -122.9231, 45.83213, 12.25587;          !- X,Y,Z Vertex 5 {m}

Shading:Building:Detailed,
  X-S-1472,                               !- Name
  ,                                       !- Transmittance Schedule Name
  ,                                       !- Number of Vertices
  -116.625, 40.175, 12.25587,             !- X,Y,Z Vertex 1 {m}
  -116.5553, 40.05429, 12.31605,          !- X,Y,Z Vertex 2 {m}
  -116.5553, 40.07471, 12.30587,          !- X,Y,Z Vertex 3 {m}
  -67.44472, 40.07471, 12.30587,          !- X,Y,Z Vertex 4 {m}
  -67.44472, 40.05429, 12.31605,          !- X,Y,Z Vertex 5 {m}
  -67.375, 40.175, 12.25587;              !- X,Y,Z Vertex 6 {m}

Shading:Building:Detailed,
  X-S-1473,                               !- Name
  ,                                       !- Transmittance Schedule Name
  ,                                       !- Number of Vertices
  -67.48583, 31.62913, 12.35154,          !- X,Y,Z Vertex 1 {m}
  -67.375, 31.575, 12.25587,              !- X,Y,Z Vertex 2 {m}
  -67.375, 40.175, 12.25587,              !- X,Y,Z Vertex 3 {m}
  -67.44472, 40.05429, 12.31605,          !- X,Y,Z Vertex 4 {m}
  -67.44472, 31.62913, 12.31605;          !- X,Y,Z Vertex 5 {m}

Shading:Building:Detailed,
  X-S-1474,                               !- Name
  ,                                       !- Transmittance Schedule Name
  ,                                       !- Number of Vertices
  -116.625, 31.575, 12.25587,             !- X,Y,Z Vertex 1 {m}
  -116.5142, 31.62913, 12.35154,          !- X,Y,Z Vertex 2 {m}
  -116.5553, 31.62913, 12.31605,          !- X,Y,Z Vertex 3 {m}
  -116.5553, 40.05429, 12.31605,          !- X,Y,Z Vertex 4 {m}
  -116.625, 40.175, 12.25587;             !- X,Y,Z Vertex 5 {m}

Shading:Building:Detailed,
  X-S-1475,                               !- Name
  ,                                       !- Transmittance Schedule Name
  ,                                       !- Number of Vertices
  -116.625, 31.575, 12.25587,             !- X,Y,Z Vertex 1 {m}
  -67.375, 31.575, 12.25587,              !- X,Y,Z Vertex 2 {m}
  -67.48583, 31.62913, 12.35154,          !- X,Y,Z Vertex 3 {m}
  -116.5142, 31.62913, 12.35154;          !- X,Y,Z Vertex 4 {m}

Shading:Building:Detailed,
  X-S-1476,                               !- Name
  ,                                       !- Transmittance Schedule Name
  ,                                       !- Number of Vertices
  -67.025, 103.625, 17.82141,             !- X,Y,Z Vertex 1 {m}
  -66.975, 103.575, 17.80321,             !- X,Y,Z Vertex 2 {m}
  -66.975, 117.625, 17.80321,             !- X,Y,Z Vertex 3 {m}
  -67.025, 117.575, 17.82141;             !- X,Y,Z Vertex 4 {m}

Shading:Building:Detailed,
  X-S-1477,                               !- Name
  ,                                       !- Transmittance Schedule Name
  ,                                       !- Number of Vertices
  -76.025, 103.575, 17.80321,             !- X,Y,Z Vertex 1 {m}
  -66.975, 103.575, 17.80321,             !- X,Y,Z Vertex 2 {m}
  -67.025, 103.625, 17.82141,             !- X,Y,Z Vertex 3 {m}
  -67.425, 103.625, 17.82141,             !- X,Y,Z Vertex 4 {m}
  -67.425, 103.6, 17.81231,               !- X,Y,Z Vertex 5 {m}
  -75.975, 103.6, 17.81231,               !- X,Y,Z Vertex 6 {m}
  -75.975, 103.625, 17.82141;             !- X,Y,Z Vertex 7 {m}

Shading:Building:Detailed,
  X-S-1478,                               !- Name
  ,                                       !- Transmittance Schedule Name
  ,                                       !- Number of Vertices
  -76.025, 103.575, 17.80321,             !- X,Y,Z Vertex 1 {m}
  -75.975, 103.625, 17.82141,             !- X,Y,Z Vertex 2 {m}
  -75.975, 108.102, 17.82141,             !- X,Y,Z Vertex 3 {m}
  -76.025, 108.0705, 17.80321;            !- X,Y,Z Vertex 4 {m}

Shading:Building:Detailed,
  X-S-1479,                               !- Name
  ,                                       !- Transmittance Schedule Name
  ,                                       !- Number of Vertices
  -76.025, 112.3295, 17.80321,            !- X,Y,Z Vertex 1 {m}
  -75.975, 112.298, 17.82141,             !- X,Y,Z Vertex 2 {m}
  -75.975, 116.825, 17.82141,             !- X,Y,Z Vertex 3 {m}
  -76, 116.825, 17.81231,                 !- X,Y,Z Vertex 4 {m}
  -76, 117.6, 17.81231,                   !- X,Y,Z Vertex 5 {m}
  -76.025, 117.625, 17.80321;             !- X,Y,Z Vertex 6 {m}

Shading:Building:Detailed,
  X-S-1480,                               !- Name
  ,                                       !- Transmittance Schedule Name
  ,                                       !- Number of Vertices
  -76.025, 117.625, 17.80321,             !- X,Y,Z Vertex 1 {m}
  -76, 117.6, 17.81231,                   !- X,Y,Z Vertex 2 {m}
  -67.025, 117.6, 17.81231,               !- X,Y,Z Vertex 3 {m}
  -67.025, 117.575, 17.82141,             !- X,Y,Z Vertex 4 {m}
  -66.975, 117.625, 17.80321;             !- X,Y,Z Vertex 5 {m}

Shading:Building:Detailed,
  X-S-1481,                               !- Name
  ,                                       !- Transmittance Schedule Name
  ,                                       !- Number of Vertices
  -109.425, 116.825, 15.20774,            !- X,Y,Z Vertex 1 {m}
  -109.3384, 116.7384, 15.25774,          !- X,Y,Z Vertex 2 {m}
  -76, 116.7384, 15.25774,                !- X,Y,Z Vertex 3 {m}
  -76, 116.825, 15.20774;                 !- X,Y,Z Vertex 4 {m}

Shading:Building:Detailed,
  X-S-1482,                               !- Name
  ,                                       !- Transmittance Schedule Name
  ,                                       !- Number of Vertices
  -76.025, 110.2, 19.03268,               !- X,Y,Z Vertex 1 {m}
  -75.975, 110.2, 19.03268,               !- X,Y,Z Vertex 2 {m}
  -75.975, 112.298, 17.82141,             !- X,Y,Z Vertex 3 {m}
  -76.025, 112.3295, 17.80321;            !- X,Y,Z Vertex 4 {m}

Shading:Building:Detailed,
  X-S-1483,                               !- Name
  ,                                       !- Transmittance Schedule Name
  ,                                       !- Number of Vertices
  -76.025, 108.0705, 17.80321,            !- X,Y,Z Vertex 1 {m}
  -75.975, 108.102, 17.82141,             !- X,Y,Z Vertex 2 {m}
  -75.975, 110.2, 19.03268,               !- X,Y,Z Vertex 3 {m}
  -76.025, 110.2, 19.03268;               !- X,Y,Z Vertex 4 {m}

Shading:Building:Detailed,
  X-S-1484,                               !- Name
  ,                                       !- Transmittance Schedule Name
  ,                                       !- Number of Vertices
  -109.425, 103.575, 15.20774,            !- X,Y,Z Vertex 1 {m}
  -75.975, 103.575, 15.20774,             !- X,Y,Z Vertex 2 {m}
  -75.975, 103.6, 15.22217,               !- X,Y,Z Vertex 3 {m}
  -76, 103.6, 15.22217,                   !- X,Y,Z Vertex 4 {m}
  -76, 103.6616, 15.25774,                !- X,Y,Z Vertex 5 {m}
  -109.3384, 103.6616, 15.25774;          !- X,Y,Z Vertex 6 {m}

Shading:Building:Detailed,
  X-S-1485,                               !- Name
  ,                                       !- Transmittance Schedule Name
  ,                                       !- Number of Vertices
  -109.425, 103.575, 15.20774,            !- X,Y,Z Vertex 1 {m}
  -109.3384, 103.6616, 15.25774,          !- X,Y,Z Vertex 2 {m}
  -109.3384, 116.7384, 15.25774,          !- X,Y,Z Vertex 3 {m}
  -109.425, 116.825, 15.20774;            !- X,Y,Z Vertex 4 {m}

Shading:Building:Detailed,
  X-S-1486,                               !- Name
  ,                                       !- Transmittance Schedule Name
  ,                                       !- Number of Vertices
  -67.425, 103.6, 15.20321,               !- X,Y,Z Vertex 1 {m}
  -67.4, 103.6, 15.21764,                 !- X,Y,Z Vertex 2 {m}
  -67.4, 103.6, 17.8,                     !- X,Y,Z Vertex 3 {m}
  -67.425, 103.6, 17.8;                   !- X,Y,Z Vertex 4 {m}

Shading:Building:Detailed,
  X-S-1487,                               !- Name
  ,                                       !- Transmittance Schedule Name
  ,                                       !- Number of Vertices
  -76.025, 103.6, 15.2,                   !- X,Y,Z Vertex 1 {m}
  -76, 103.6, 15.2,                       !- X,Y,Z Vertex 2 {m}
  -76, 103.6, 15.22217,                   !- X,Y,Z Vertex 3 {m}
  -75.975, 103.6, 15.22217,               !- X,Y,Z Vertex 4 {m}
  -75.975, 103.6, 17.8,                   !- X,Y,Z Vertex 5 {m}
  -76.025, 103.6, 17.8;                   !- X,Y,Z Vertex 6 {m}

Shading:Building:Detailed,
  X-S-1488,                               !- Name
  ,                                       !- Transmittance Schedule Name
  ,                                       !- Number of Vertices
  -67.4, 103.6, 10.35,                    !- X,Y,Z Vertex 1 {m}
  -67.4, 103.6, 14.3,                     !- X,Y,Z Vertex 2 {m}
  -67.4, 103.625, 14.3,                   !- X,Y,Z Vertex 3 {m}
  -67.4, 103.625, 10.35;                  !- X,Y,Z Vertex 4 {m}

Shading:Building:Detailed,
  X-S-1489,                               !- Name
  ,                                       !- Transmittance Schedule Name
  ,                                       !- Number of Vertices
  -67.425, 45.6, 10.35,                   !- X,Y,Z Vertex 1 {m}
  -67.4, 45.6, 10.35,                     !- X,Y,Z Vertex 2 {m}
  -67.4, 45.6, 12.25,                     !- X,Y,Z Vertex 3 {m}
  -67.425, 45.6, 12.25;                   !- X,Y,Z Vertex 4 {m}

Shading:Building:Detailed,
  X-S-1490,                               !- Name
  ,                                       !- Transmittance Schedule Name
  ,                                       !- Number of Vertices
  -67.4, 45.6, 12.27745,                  !- X,Y,Z Vertex 1 {m}
  -67.375, 45.6, 12.25587,                !- X,Y,Z Vertex 2 {m}
  -67.375, 45.6, 13.3,                    !- X,Y,Z Vertex 3 {m}
  -67.4, 45.6, 13.3;                      !- X,Y,Z Vertex 4 {m}

Shading:Building:Detailed,
  X-S-1491,                               !- Name
  ,                                       !- Transmittance Schedule Name
  ,                                       !- Number of Vertices
  -57.4, 74.39742, 18.24639,              !- X,Y,Z Vertex 1 {m}
  -57.375, 74.39742, 18.24639,            !- X,Y,Z Vertex 2 {m}
  -57.375, 82.7585, 15.20321,             !- X,Y,Z Vertex 3 {m}
  -57.4, 82.71884, 15.21764;              !- X,Y,Z Vertex 4 {m}

Shading:Building:Detailed,
  X-S-1492,                               !- Name
  ,                                       !- Transmittance Schedule Name
  ,                                       !- Number of Vertices
  -67.425, 66.03634, 15.20321,            !- X,Y,Z Vertex 1 {m}
  -67.4, 66.076, 15.21764,                !- X,Y,Z Vertex 2 {m}