
OS:Version,
  {75a42751-b9ea-41de-be9a-c5d012aa1484}, !- Handle
  2.8.0;                                  !- Version Identifier

OS:Material,
  {1611b377-f661-45b4-a39c-8a431088db9e}, !- Handle
  External Side Wall,                     !- Name
  MediumRough,                            !- Roughness
  0.025,                                  !- Thickness {m}
  0.187,                                  !- Conductivity {W/m-K}
  290,                                    !- Density {kg/m3}
  14423.639958391;                        !- Specific Heat {J/kg-K}

OS:Material,
  {fb77c775-59b8-479f-9e05-a04579613846}, !- Handle
  Inernal Side,                           !- Name
  MediumRough,                            !- Roughness
  0.025,                                  !- Thickness {m}
  0.187,                                  !- Conductivity {W/m-K}
  290,                                    !- Density {kg/m3}
  14423.639958391;                        !- Specific Heat {J/kg-K}

OS:Material,
  {9dcfef3d-1085-4906-bbd9-1975abf58911}, !- Handle
  External Side(ground),                  !- Name
  MediumRough,                            !- Roughness
  0.025,                                  !- Thickness {m}
  0.187,                                  !- Conductivity {W/m-K}
  290,                                    !- Density {kg/m3}
  14423.639958391;                        !- Specific Heat {J/kg-K}

OS:Material,
  {08a5219e-92c9-4518-9210-4978b43e165f}, !- Handle
  External Side Roof,                     !- Name
  MediumRough,                            !- Roughness
  0.025,                                  !- Thickness {m}
  0.187,                                  !- Conductivity {W/m-K}
  290,                                    !- Density {kg/m3}
  14423.639958391;                        !- Specific Heat {J/kg-K}

OS:Material,
  {bf73d04b-b455-45f0-a8eb-791be451b718}, !- Handle
  Core Wall,                              !- Name
  MediumRough,                            !- Roughness
  0.05,                                   !- Thickness {m}
  0.187,                                  !- Conductivity {W/m-K}
  290,                                    !- Density {kg/m3}
  14423.639958391;                        !- Specific Heat {J/kg-K}

OS:Material,
  {039577ed-d477-4e93-9d5f-87e36af1b156}, !- Handle
  Internal Partition,                     !- Name
  MediumRough,                            !- Roughness
  0.05,                                   !- Thickness {m}
  0.187,                                  !- Conductivity {W/m-K}
  290,                                    !- Density {kg/m3}
  14423.639958391;                        !- Specific Heat {J/kg-K}

OS:Construction,
  {e8c83ab2-7499-4c80-a045-4cf9ac6092d6}, !- Handle
  Floor : SIM_EXT_GRD_FLR FLR01,          !- Name
  ,                                       !- Surface Rendering Name
  {fb77c775-59b8-479f-9e05-a04579613846}, !- Layer 1
  {9dcfef3d-1085-4906-bbd9-1975abf58911}; !- Layer 2

OS:Construction,
  {b9c15a32-70fd-4a4e-9337-43a2446b17ff}, !- Handle
  Basic Wall : SIM_EXT_SLD,               !- Name
  ,                                       !- Surface Rendering Name
  {1611b377-f661-45b4-a39c-8a431088db9e}, !- Layer 1
  {fb77c775-59b8-479f-9e05-a04579613846}; !- Layer 2

OS:Construction,
  {0438b463-d69e-489d-b310-702c92291f9c}, !- Handle
  {36e99088-2bbe-474a-b7de-1aa210d920b1}, !- Name
  ,                                       !- Surface Rendering Name
  {fb77c775-59b8-479f-9e05-a04579613846}, !- Layer 1
  {9dcfef3d-1085-4906-bbd9-1975abf58911}; !- Layer 2

OS:Construction,
  {e0685954-cc09-4803-8063-28ef2d8d2911}, !- Handle
  Basic Wall : SIM_INT_SLD_Core,          !- Name
  ,                                       !- Surface Rendering Name
  {bf73d04b-b455-45f0-a8eb-791be451b718}; !- Layer 1

OS:Construction,
  {adccb693-6b76-4921-a998-18997b49189a}, !- Handle
  {af695710-c975-44ee-96cc-c7aec228bd24}, !- Name
  ,                                       !- Surface Rendering Name
  {fb77c775-59b8-479f-9e05-a04579613846}, !- Layer 1
  {9dcfef3d-1085-4906-bbd9-1975abf58911}; !- Layer 2

OS:Construction,
  {1aa82921-e832-44b1-951e-83f4f6ecb862}, !- Handle
  Basic Roof : SIM_EXT_SLD_Roof DA01,     !- Name
  ,                                       !- Surface Rendering Name
  {08a5219e-92c9-4518-9210-4978b43e165f}, !- Layer 1
  {fb77c775-59b8-479f-9e05-a04579613846}; !- Layer 2

OS:Construction,
  {926709c1-8c29-4d03-946d-7312a56dcdbd}, !- Handle
  {670af1be-2179-4ea1-8680-107e341b6268}, !- Name
  ,                                       !- Surface Rendering Name
  {fb77c775-59b8-479f-9e05-a04579613846}, !- Layer 1
  {9dcfef3d-1085-4906-bbd9-1975abf58911}; !- Layer 2

OS:Construction,
  {ee3cb01c-ea6b-4764-92ec-35acb71ac24e}, !- Handle
  {298fffc4-062f-48b0-a353-9e47e1acd042}, !- Name
  ,                                       !- Surface Rendering Name
  {fb77c775-59b8-479f-9e05-a04579613846}, !- Layer 1
  {9dcfef3d-1085-4906-bbd9-1975abf58911}; !- Layer 2

OS:Construction,
  {305bf8c4-138c-4cb6-b115-12953cf42ac9}, !- Handle
  {0e1cd0c7-8659-48e5-97f9-4e8800df7e18}, !- Name
  ,                                       !- Surface Rendering Name
  {1611b377-f661-45b4-a39c-8a431088db9e}, !- Layer 1
  {fb77c775-59b8-479f-9e05-a04579613846}; !- Layer 2

OS:Construction,
  {6ab12e9a-bf25-4177-b607-29656754605f}, !- Handle
  WinInst : SIM_EXT_GLZ,                  !- Name
  ,                                       !- Surface Rendering Name
  {8654dc28-b8ac-4e7b-996b-534d9260bfb8}; !- Layer 1

OS:WindowMaterial:SimpleGlazingSystem,
  {8654dc28-b8ac-4e7b-996b-534d9260bfb8}, !- Handle
  {b74b96bf-1a0d-44e7-93e5-93fdbf8e4ba4}, !- Name
  0.1,                                    !- U-Factor {W/m2-K}
  0.1;                                    !- Solar Heat Gain Coefficient

OS:Construction,
  {5ee75685-2a7e-4013-8cfe-e52c380da766}, !- Handle
  Skylight_ver00 : SIM_EXT_GLZ_SKY DF01,  !- Name
  ,                                       !- Surface Rendering Name
  {8cf8d8fd-ee16-4923-bae1-f9107893a14f}; !- Layer 1

OS:WindowMaterial:SimpleGlazingSystem,
  {8cf8d8fd-ee16-4923-bae1-f9107893a14f}, !- Handle
  {a35947f2-1885-4cef-a065-a1074f08fc59}, !- Name
  0.1,                                    !- U-Factor {W/m2-K}
  0.1;                                    !- Solar Heat Gain Coefficient

OS:Construction,
  {55d8c663-4d52-4680-8c46-fccf3c18e5bc}, !- Handle
  Doors_ver01 : SIM_INT_SLD,              !- Name
  ,                                       !- Surface Rendering Name
  {5cb3a25a-c7c5-4860-a346-b4e713dfeb26}; !- Layer 1

OS:WindowMaterial:SimpleGlazingSystem,
  {5cb3a25a-c7c5-4860-a346-b4e713dfeb26}, !- Handle
  {ea70a75c-0663-4342-981b-80d2266cce98}, !- Name
  0.1,                                    !- U-Factor {W/m2-K}
  0.1;                                    !- Solar Heat Gain Coefficient

OS:ThermalZone,
  {2ab3af66-c80b-4780-9d68-5e78fe27f293}, !- Handle
  Zone,                                   !- Name
  ,                                       !- Multiplier
  ,                                       !- Ceiling Height {m}
  ,                                       !- Volume {m3}
  ,                                       !- Floor Area {m2}
  ,                                       !- Zone Inside Convection Algorithm
  ,                                       !- Zone Outside Convection Algorithm
  ,                                       !- Zone Conditioning Equipment List Name
  {b0ecb86d-7e77-445b-8435-e5592f574b6a}, !- Zone Air Inlet Port List
  {fbc94624-4d7d-41c7-bce1-6351824d6556}, !- Zone Air Exhaust Port List
  {8c7e671a-ec58-49ba-9310-9cd38540a23d}, !- Zone Air Node Name
  {04f6b539-a3bd-415f-a67c-37578c8a1bd8}, !- Zone Return Air Port List
  ,                                       !- Primary Daylighting Control Name
  ,                                       !- Fraction of Zone Controlled by Primary Daylighting Control
  ,                                       !- Secondary Daylighting Control Name
  ,                                       !- Fraction of Zone Controlled by Secondary Daylighting Control
  ,                                       !- Illuminance Map Name
  ,                                       !- Group Rendering Name
  ,                                       !- Thermostat Name
  No;                                     !- Use Ideal Air Loads

OS:Node,
  {bca39085-a3c4-44ac-9013-01ea544334db}, !- Handle
  {ff0abe22-3b18-46d3-a3f8-637d89eaeac1}, !- Name
  {8c7e671a-ec58-49ba-9310-9cd38540a23d}, !- Inlet Port
  ;                                       !- Outlet Port

OS:Connection,
  {8c7e671a-ec58-49ba-9310-9cd38540a23d}, !- Handle
  {6500e1c5-36e8-4880-aa72-e135ebd39137}, !- Name
  {2ab3af66-c80b-4780-9d68-5e78fe27f293}, !- Source Object
  11,                                     !- Outlet Port
  {bca39085-a3c4-44ac-9013-01ea544334db}, !- Target Object
  2;                                      !- Inlet Port

OS:PortList,
  {b0ecb86d-7e77-445b-8435-e5592f574b6a}, !- Handle
  {f13b0028-5aed-42d3-b460-6d2e66f8d15a}, !- Name
  {2ab3af66-c80b-4780-9d68-5e78fe27f293}; !- HVAC Component

OS:PortList,
  {fbc94624-4d7d-41c7-bce1-6351824d6556}, !- Handle
  {6f5005d4-f138-4c94-a8a8-d2d53d966ff1}, !- Name
  {2ab3af66-c80b-4780-9d68-5e78fe27f293}; !- HVAC Component

OS:PortList,
  {04f6b539-a3bd-415f-a67c-37578c8a1bd8}, !- Handle
  {d79e4083-8346-463e-b94a-e03410c2802f}, !- Name
  {2ab3af66-c80b-4780-9d68-5e78fe27f293}; !- HVAC Component

OS:Sizing:Zone,
  {c9334a21-63ce-499c-bc38-1e10917249bf}, !- Handle
  {2ab3af66-c80b-4780-9d68-5e78fe27f293}, !- Zone or ZoneList Name
  SupplyAirTemperature,                   !- Zone Cooling Design Supply Air Temperature Input Method
  14,                                     !- Zone Cooling Design Supply Air Temperature {C}
  11.11,                                  !- Zone Cooling Design Supply Air Temperature Difference {deltaC}
  SupplyAirTemperature,                   !- Zone Heating Design Supply Air Temperature Input Method
  40,                                     !- Zone Heating Design Supply Air Temperature {C}
  11.11,                                  !- Zone Heating Design Supply Air Temperature Difference {deltaC}
  0.0085,                                 !- Zone Cooling Design Supply Air Humidity Ratio {kg-H2O/kg-air}
  0.008,                                  !- Zone Heating Design Supply Air Humidity Ratio {kg-H2O/kg-air}
  ,                                       !- Zone Heating Sizing Factor
  ,                                       !- Zone Cooling Sizing Factor
  DesignDay,                              !- Cooling Design Air Flow Method
  ,                                       !- Cooling Design Air Flow Rate {m3/s}
  ,                                       !- Cooling Minimum Air Flow per Zone Floor Area {m3/s-m2}
  ,                                       !- Cooling Minimum Air Flow {m3/s}
  ,                                       !- Cooling Minimum Air Flow Fraction
  DesignDay,                              !- Heating Design Air Flow Method
  ,                                       !- Heating Design Air Flow Rate {m3/s}
  ,                                       !- Heating Maximum Air Flow per Zone Floor Area {m3/s-m2}
  ,                                       !- Heating Maximum Air Flow {m3/s}
  ,                                       !- Heating Maximum Air Flow Fraction
  ,                                       !- Design Zone Air Distribution Effectiveness in Cooling Mode
  ,                                       !- Design Zone Air Distribution Effectiveness in Heating Mode
  No,                                     !- Account for Dedicated Outdoor Air System
  NeutralSupplyAir,                       !- Dedicated Outdoor Air System Control Strategy
  autosize,                               !- Dedicated Outdoor Air Low Setpoint Temperature for Design {C}
  autosize;                               !- Dedicated Outdoor Air High Setpoint Temperature for Design {C}

OS:ZoneHVAC:EquipmentList,
  {4b8cdbeb-e177-4a7b-bdae-ea00b832591e}, !- Handle
  {cd588eb5-89af-4fb7-9eaa-983d3c21110e}, !- Name
  {2ab3af66-c80b-4780-9d68-5e78fe27f293}; !- Thermal Zone

OS:AdditionalProperties,
  {641e1b38-98e1-45e0-845d-1d9a9ff933c1}, !- Handle
  {2ab3af66-c80b-4780-9d68-5e78fe27f293}, !- Object Name
  CADObjectId,                            !- Feature Name 1
  String,                                 !- Feature Data Type 1
  Unknown;                                !- Feature Value 1

OS:ThermalZone,
  {2542c491-5316-444d-85d8-a38b2f25064d}, !- Handle
  Default,                                !- Name
  ,                                       !- Multiplier
  ,                                       !- Ceiling Height {m}
  ,                                       !- Volume {m3}
  ,                                       !- Floor Area {m2}
  ,                                       !- Zone Inside Convection Algorithm
  ,                                       !- Zone Outside Convection Algorithm
  ,                                       !- Zone Conditioning Equipment List Name
  {60673c70-dc51-416c-9fd7-70608a6a398a}, !- Zone Air Inlet Port List
  {80d080e1-2b28-4f18-8005-685651552bce}, !- Zone Air Exhaust Port List
  {ad837867-2012-47a1-94ed-29bd09ce3573}, !- Zone Air Node Name
  {5c6d8fec-57ae-4a5b-a17b-e3d86b750f4a}, !- Zone Return Air Port List
  ,                                       !- Primary Daylighting Control Name
  ,                                       !- Fraction of Zone Controlled by Primary Daylighting Control
  ,                                       !- Secondary Daylighting Control Name
  ,                                       !- Fraction of Zone Controlled by Secondary Daylighting Control
  ,                                       !- Illuminance Map Name
  ,                                       !- Group Rendering Name
  ,                                       !- Thermostat Name
  No;                                     !- Use Ideal Air Loads

OS:Node,
  {aad09665-db60-4545-b7f1-5ffeb32242d3}, !- Handle
  {21400c3f-55f3-442f-9a01-62fc447ca258}, !- Name
  {ad837867-2012-47a1-94ed-29bd09ce3573}, !- Inlet Port
  ;                                       !- Outlet Port

OS:Connection,
  {ad837867-2012-47a1-94ed-29bd09ce3573}, !- Handle
  {e50a203f-97b9-43ac-862a-6b4267282437}, !- Name
  {2542c491-5316-444d-85d8-a38b2f25064d}, !- Source Object
  11,                                     !- Outlet Port
  {aad09665-db60-4545-b7f1-5ffeb32242d3}, !- Target Object
  2;                                      !- Inlet Port

OS:PortList,
  {60673c70-dc51-416c-9fd7-70608a6a398a}, !- Handle
  {77180646-d311-4389-8edc-1982c301f0a7}, !- Name
  {2542c491-5316-444d-85d8-a38b2f25064d}; !- HVAC Component

OS:PortList,
  {80d080e1-2b28-4f18-8005-685651552bce}, !- Handle
  {ac5ae0eb-e20c-428f-900c-1db3e09e822a}, !- Name
  {2542c491-5316-444d-85d8-a38b2f25064d}; !- HVAC Component

OS:PortList,
  {5c6d8fec-57ae-4a5b-a17b-e3d86b750f4a}, !- Handle
  {af0eef67-8f3b-4f08-ae55-32775261f700}, !- Name
  {2542c491-5316-444d-85d8-a38b2f25064d}; !- HVAC Component

OS:Sizing:Zone,
  {4dfe4d08-72c6-4fc2-9255-4bd169cd9675}, !- Handle
  {2542c491-5316-444d-85d8-a38b2f25064d}, !- Zone or ZoneList Name
  SupplyAirTemperature,                   !- Zone Cooling Design Supply Air Temperature Input Method
  14,                                     !- Zone Cooling Design Supply Air Temperature {C}
  11.11,                                  !- Zone Cooling Design Supply Air Temperature Difference {deltaC}
  SupplyAirTemperature,                   !- Zone Heating Design Supply Air Temperature Input Method
  40,                                     !- Zone Heating Design Supply Air Temperature {C}
  11.11,                                  !- Zone Heating Design Supply Air Temperature Difference {deltaC}
  0.0085,                                 !- Zone Cooling Design Supply Air Humidity Ratio {kg-H2O/kg-air}
  0.008,                                  !- Zone Heating Design Supply Air Humidity Ratio {kg-H2O/kg-air}
  ,                                       !- Zone Heating Sizing Factor
  ,                                       !- Zone Cooling Sizing Factor
  DesignDay,                              !- Cooling Design Air Flow Method
  ,                                       !- Cooling Design Air Flow Rate {m3/s}
  ,                                       !- Cooling Minimum Air Flow per Zone Floor Area {m3/s-m2}
  ,                                       !- Cooling Minimum Air Flow {m3/s}
  ,                                       !- Cooling Minimum Air Flow Fraction
  DesignDay,                              !- Heating Design Air Flow Method
  ,                                       !- Heating Design Air Flow Rate {m3/s}
  ,                                       !- Heating Maximum Air Flow per Zone Floor Area {m3/s-m2}
  ,                                       !- Heating Maximum Air Flow {m3/s}
  ,                                       !- Heating Maximum Air Flow Fraction
  ,                                       !- Design Zone Air Distribution Effectiveness in Cooling Mode
  ,                                       !- Design Zone Air Distribution Effectiveness in Heating Mode
  No,                                     !- Account for Dedicated Outdoor Air System
  NeutralSupplyAir,                       !- Dedicated Outdoor Air System Control Strategy
  autosize,                               !- Dedicated Outdoor Air Low Setpoint Temperature for Design {C}
  autosize;                               !- Dedicated Outdoor Air High Setpoint Temperature for Design {C}

OS:ZoneHVAC:EquipmentList,
  {37f9ba64-324a-4640-82d2-0da9bd30d68b}, !- Handle
  {873b54a4-b814-4339-a7f6-206eb999b016}, !- Name
  {2542c491-5316-444d-85d8-a38b2f25064d}; !- Thermal Zone

OS:AdditionalProperties,
  {09b8d659-1a31-44bc-b218-da9bbe1c5e2f}, !- Handle
  {2542c491-5316-444d-85d8-a38b2f25064d}, !- Object Name
  CADObjectId,                            !- Feature Name 1
  String,                                 !- Feature Data Type 1
  293242;                                 !- Feature Value 1

OS:Facility,
  {4fba2151-2c80-43a4-bc5e-fd237e3f0359}; !- Handle

OS:Building,
  {b04541bb-2461-4b45-a8b3-31f255e039d7}, !- Handle
  bldg-1,                                 !- Name
  ,                                       !- Building Sector Type
  ,                                       !- North Axis {deg}
  ,                                       !- Nominal Floor to Floor Height {m}
  ,                                       !- Space Type Name
  ,                                       !- Default Construction Set Name
  ;                                       !- Default Schedule Set Name

OS:BuildingStory,
  {84248195-55d9-40bd-a441-d4dc43b7d545}, !- Handle
  Level 00W0,                             !- Name
  ,                                       !- Nominal Z Coordinate {m}
  ,                                       !- Nominal Floor to Floor Height {m}
  ,                                       !- Default Construction Set Name
  ,                                       !- Default Schedule Set Name
  ;                                       !- Group Rendering Name

OS:BuildingStory,
  {6e854539-4f03-4150-87bc-58ad79200901}, !- Handle
  Level 00S0,                             !- Name
  ,                                       !- Nominal Z Coordinate {m}
  ,                                       !- Nominal Floor to Floor Height {m}
  ,                                       !- Default Construction Set Name
  ,                                       !- Default Schedule Set Name
  ;                                       !- Group Rendering Name

OS:BuildingStory,
  {ea6ab49f-e725-484a-88f1-e45ec01fddf7}, !- Handle
  Level 00E0,                             !- Name
  ,                                       !- Nominal Z Coordinate {m}
  ,                                       !- Nominal Floor to Floor Height {m}
  ,                                       !- Default Construction Set Name
  ,                                       !- Default Schedule Set Name
  ;                                       !- Group Rendering Name

OS:BuildingStory,
  {92a7d550-7dcf-46f9-9c95-9b9f815c550d}, !- Handle
  Level 00NE,                             !- Name
  ,                                       !- Nominal Z Coordinate {m}
  ,                                       !- Nominal Floor to Floor Height {m}
  ,                                       !- Default Construction Set Name
  ,                                       !- Default Schedule Set Name
  ;                                       !- Group Rendering Name

OS:BuildingStory,
  {a1efcd9a-f1e6-4e83-8a7f-d7807608c341}, !- Handle
  Level 00N0,                             !- Name
  ,                                       !- Nominal Z Coordinate {m}
  ,                                       !- Nominal Floor to Floor Height {m}
  ,                                       !- Default Construction Set Name
  ,                                       !- Default Schedule Set Name
  ;                                       !- Group Rendering Name

OS:BuildingStory,
  {1ae24404-92ff-4d9c-bb55-174906931353}, !- Handle
  Level 0100,                             !- Name
  ,                                       !- Nominal Z Coordinate {m}
  ,                                       !- Nominal Floor to Floor Height {m}
  ,                                       !- Default Construction Set Name
  ,                                       !- Default Schedule Set Name
  ;                                       !- Group Rendering Name

OS:BuildingStory,
  {cd89d2eb-c4ca-4542-a616-86a126d3a25b}, !- Handle
  Level 0200,                             !- Name
  ,                                       !- Nominal Z Coordinate {m}
  ,                                       !- Nominal Floor to Floor Height {m}
  ,                                       !- Default Construction Set Name
  ,                                       !- Default Schedule Set Name
  ;                                       !- Group Rendering Name

OS:BuildingStory,
  {5ba46d8e-0008-40bf-b58a-7271702dadbf}, !- Handle
  Level 03S0,                             !- Name
  ,                                       !- Nominal Z Coordinate {m}
  ,                                       !- Nominal Floor to Floor Height {m}
  ,                                       !- Default Construction Set Name
  ,                                       !- Default Schedule Set Name
  ;                                       !- Group Rendering Name

OS:BuildingStory,
  {f516b26a-7a28-4abf-bfa8-eca0af89c402}, !- Handle
  Level 02E0,                             !- Name
  ,                                       !- Nominal Z Coordinate {m}
  ,                                       !- Nominal Floor to Floor Height {m}
  ,                                       !- Default Construction Set Name
  ,                                       !- Default Schedule Set Name
  ;                                       !- Group Rendering Name

OS:BuildingStory,
  {878cae7d-ca55-438c-9ba1-6cdaa4f289e7}, !- Handle
  Level 0300,                             !- Name
  ,                                       !- Nominal Z Coordinate {m}
  ,                                       !- Nominal Floor to Floor Height {m}
  ,                                       !- Default Construction Set Name
  ,                                       !- Default Schedule Set Name
  ;                                       !- Group Rendering Name

OS:Space,
  {de1f77b0-4ad8-4ef4-8f8b-5103b08c3259}, !- Handle
  00E0_100 Exhibition,                    !- Name
  ,                                       !- Space Type Name
  ,                                       !- Default Construction Set Name
  ,                                       !- Default Schedule Set Name
  ,                                       !- Direction of Relative North {deg}
  ,                                       !- X Origin {m}
  ,                                       !- Y Origin {m}
  ,                                       !- Z Origin {m}
  {ea6ab49f-e725-484a-88f1-e45ec01fddf7}, !- Building Story Name
  {2542c491-5316-444d-85d8-a38b2f25064d}; !- Thermal Zone Name

OS:AdditionalProperties,
  {9de47143-b967-44ac-b765-0dafd57157f3}, !- Handle
  {de1f77b0-4ad8-4ef4-8f8b-5103b08c3259}, !- Object Name
  CADObjectId,                            !- Feature Name 1
  String,                                 !- Feature Data Type 1
  927465;                                 !- Feature Value 1

OS:Space,
  {997dacd4-72c8-453a-8fd2-3b759e4e901f}, !- Handle
  00E0_101 Foyer,                         !- Name
  ,                                       !- Space Type Name
  ,                                       !- Default Construction Set Name
  ,                                       !- Default Schedule Set Name
  ,                                       !- Direction of Relative North {deg}
  ,                                       !- X Origin {m}
  ,                                       !- Y Origin {m}
  ,                                       !- Z Origin {m}
  {ea6ab49f-e725-484a-88f1-e45ec01fddf7}, !- Building Story Name
  {2542c491-5316-444d-85d8-a38b2f25064d}; !- Thermal Zone Name

OS:AdditionalProperties,
  {d026e961-0b8f-466f-ac53-c03d9293d6a8}, !- Handle
  {997dacd4-72c8-453a-8fd2-3b759e4e901f}, !- Object Name
  CADObjectId,                            !- Feature Name 1
  String,                                 !- Feature Data Type 1
  927472;                                 !- Feature Value 1

OS:Space,
  {73f5e1bb-77af-4619-9da7-d7e76867f3d6}, !- Handle
  00E0_102 Foyer,                         !- Name
  ,                                       !- Space Type Name
  ,                                       !- Default Construction Set Name
  ,                                       !- Default Schedule Set Name
  ,                                       !- Direction of Relative North {deg}
  ,                                       !- X Origin {m}
  ,                                       !- Y Origin {m}
  ,                                       !- Z Origin {m}
  {ea6ab49f-e725-484a-88f1-e45ec01fddf7}, !- Building Story Name
  {2542c491-5316-444d-85d8-a38b2f25064d}; !- Thermal Zone Name

OS:AdditionalProperties,
  {0d6dd4ba-8e35-495d-a3bc-2514dde6875c}, !- Handle
  {73f5e1bb-77af-4619-9da7-d7e76867f3d6}, !- Object Name
  CADObjectId,                            !- Feature Name 1
  String,                                 !- Feature Data Type 1
  1084499;                                !- Feature Value 1

OS:Space,
  {a433a7c7-fb0b-47d1-b73f-7d53ea86ce7c}, !- Handle
  00E0_103 CleanerStore,                  !- Name
  ,                                       !- Space Type Name
  ,                                       !- Default Construction Set Name
  ,                                       !- Default Schedule Set Name
  ,                                       !- Direction of Relative North {deg}
  ,                                       !- X Origin {m}
  ,                                       !- Y Origin {m}
  ,                                       !- Z Origin {m}
  {ea6ab49f-e725-484a-88f1-e45ec01fddf7}, !- Building Story Name
  {2542c491-5316-444d-85d8-a38b2f25064d}; !- Thermal Zone Name

OS:AdditionalProperties,
  {cd9dce78-ec0a-4667-b28a-3603e9548c3a}, !- Handle
  {a433a7c7-fb0b-47d1-b73f-7d53ea86ce7c}, !- Object Name
  CADObjectId,                            !- Feature Name 1
  String,                                 !- Feature Data Type 1
  1084502;                                !- Feature Value 1

OS:Space,
  {224488ad-1464-4db6-b9ae-be781fb99e9e}, !- Handle
  00E0_104 Toilet,                        !- Name
  ,                                       !- Space Type Name
  ,                                       !- Default Construction Set Name
  ,                                       !- Default Schedule Set Name
  ,                                       !- Direction of Relative North {deg}
  ,                                       !- X Origin {m}
  ,                                       !- Y Origin {m}
  ,                                       !- Z Origin {m}
  {ea6ab49f-e725-484a-88f1-e45ec01fddf7}, !- Building Story Name
  {2542c491-5316-444d-85d8-a38b2f25064d}; !- Thermal Zone Name

OS:AdditionalProperties,
  {f9caf430-10fd-4b00-9b24-fe037abe103c}, !- Handle
  {224488ad-1464-4db6-b9ae-be781fb99e9e}, !- Object Name
  CADObjectId,                            !- Feature Name 1
  String,                                 !- Feature Data Type 1
  1084505;                                !- Feature Value 1

OS:Space,
  {f0dbd9c9-6284-4b3d-81a8-d6939578fc20}, !- Handle
  00E0_105 Toilet,                        !- Name
  ,                                       !- Space Type Name
  ,                                       !- Default Construction Set Name
  ,                                       !- Default Schedule Set Name
  ,                                       !- Direction of Relative North {deg}
  ,                                       !- X Origin {m}
  ,                                       !- Y Origin {m}
  ,                                       !- Z Origin {m}
  {ea6ab49f-e725-484a-88f1-e45ec01fddf7}, !- Building Story Name
  {2542c491-5316-444d-85d8-a38b2f25064d}; !- Thermal Zone Name

OS:AdditionalProperties,
  {ad23a661-f002-41f4-98a7-0eb29e259474}, !- Handle
  {f0dbd9c9-6284-4b3d-81a8-d6939578fc20}, !- Object Name
  CADObjectId,                            !- Feature Name 1
  String,                                 !- Feature Data Type 1
  1084508;                                !- Feature Value 1

OS:Space,
  {b61eb619-d40a-482f-990d-c42f3e5a5745}, !- Handle
  00E0_106 LiftVoid,                      !- Name
  ,                                       !- Space Type Name
  ,                                       !- Default Construction Set Name
  ,                                       !- Default Schedule Set Name